MODEL 1
REMARK VINA RESULT:      -9.9      0.000      0.000
REMARK  Name = ./data/4u7t_site2_bc02/pdb/l0c1.pdb
REMARK  11 active torsions:
REMARK  status: ('A' for Active; 'I' for Inactive)
REMARK    1  A    between atoms: O1_2  and  C2_3
REMARK    2  A    between atoms: C5_6  and  C6_7
REMARK    3  A    between atoms: N2_9  and  C7_10
REMARK    4  A    between atoms: C19_23  and  O3_24
REMARK    5  A    between atoms: O3_24  and  C20_25
REMARK    6  A    between atoms: C20_25  and  C21_26
REMARK    7  A    between atoms: C21_26  and  C22_27
REMARK    8  A    between atoms: C22_27  and  C23_28
REMARK    9  A    between atoms: C23_28  and  O4_29
REMARK   10  A    between atoms: O4_29  and  C24_30
REMARK   11  A    between atoms: C27_33  and  C28_34
REMARK                            x       y       z     vdW  Elec       q    Type
REMARK                         _______ _______ _______ _____ _____    ______ ____
ROOT
ATOM      1  C2  UNL     1      19.485  57.365  -2.069  0.00  0.00    +0.172 A 
ATOM      2  C3  UNL     1      19.124  56.177  -2.726  0.00  0.00    +0.040 A 
ATOM      3  C4  UNL     1      19.218  56.079  -4.116  0.00  0.00    +0.005 A 
ATOM      4  C5  UNL     1      19.668  57.167  -4.885  0.00  0.00    +0.019 A 
ATOM      5  C18 UNL     1      20.073  58.334  -4.219  0.00  0.00    +0.041 A 
ATOM      6  C19 UNL     1      19.972  58.447  -2.818  0.00  0.00    +0.172 A 
ENDROOT
BRANCH   4   7
ATOM      7  C6  UNL     1      19.649  57.080  -6.372  0.00  0.00    +0.086 C 
ATOM      8  N1  UNL     1      19.978  58.094  -7.108  0.00  0.00    -0.171 NA
ATOM      9  N2  UNL     1      20.094  57.696  -8.440  0.00  0.00    -0.222 N 
ATOM     10  C14 UNL     1      19.843  56.432  -8.548  0.00  0.00    +0.257 C 
ATOM     11  O2  UNL     1      19.900  55.746  -9.760  0.00  0.00    -0.270 OA
ATOM     12  C15 UNL     1      19.484  55.825  -7.223  0.00  0.00    +0.110 C 
ATOM     13  C16 UNL     1      18.032  55.316  -7.276  0.00  0.00    +0.015 C 
ATOM     14  C17 UNL     1      20.491  54.722  -6.845  0.00  0.00    +0.015 C 
BRANCH   9  15
ATOM     15  C7  UNL     1      20.449  58.592  -9.552  0.00  0.00    +0.108 C 
ATOM     16  C8  UNL     1      21.952  58.460  -9.927  0.00  0.00    +0.024 C 
ATOM     17  C9  UNL     1      22.212  58.734 -11.417  0.00  0.00    +0.002 C 
ATOM     18  C10 UNL     1      22.177  60.218 -11.796  0.00  0.00    +0.000 C 
ATOM     19  C11 UNL     1      20.833  60.896 -11.484  0.00  0.00    +0.000 C 
ATOM     20  C12 UNL     1      20.675  61.179  -9.983  0.00  0.00    +0.002 C 
ATOM     21  C13 UNL     1      20.002  60.038  -9.201  0.00  0.00    +0.024 C 
ENDBRANCH   9  15
ENDBRANCH   4   7
BRANCH   1  23
ATOM     22  C1  UNL     1      18.371  56.896   0.123  0.00  0.00    +0.253 C 
ATOM     23  O1  UNL     1      19.376  57.512  -0.675  0.00  0.00    -0.468 OA
ENDBRANCH   1  23
BRANCH   6  24
ATOM     24  O3  UNL     1      20.338  59.621  -2.127  0.00  0.00    -0.472 OA
BRANCH  24  25
ATOM     25  C20 UNL     1      21.664  60.144  -2.028  0.00  0.00    +0.206 C 
BRANCH  25  26
ATOM     26  C21 UNL     1      21.674  61.656  -2.296  0.00  0.00    +0.051 C 
BRANCH  26  27
ATOM     27  C22 UNL     1      22.292  62.413  -1.113  0.00  0.00    +0.051 C 
BRANCH  27  28
ATOM     28  C23 UNL     1      22.049  63.920  -1.227  0.00  0.00    +0.206 C 
BRANCH  28  29
ATOM     29  O4  UNL     1      20.882  64.178  -2.008  0.00  0.00    -0.475 OA
BRANCH  29  30
ATOM     30  C24 UNL     1      20.625  65.356  -2.730  0.00  0.00    +0.139 A 
ATOM     31  C25 UNL     1      19.598  66.256  -2.390  0.00  0.00    +0.037 A 
ATOM     32  C26 UNL     1      19.408  67.426  -3.135  0.00  0.00    +0.006 A 
ATOM     33  C27 UNL     1      20.233  67.720  -4.237  0.00  0.00    +0.040 A 
ATOM     34  C29 UNL     1      21.247  66.806  -4.578  0.00  0.00    +0.006 A 
ATOM     35  C30 UNL     1      21.440  65.641  -3.829  0.00  0.00    +0.037 A 
BRANCH  33  36
ATOM     36  C28 UNL     1      20.046  68.976  -5.021  0.00  0.00    +0.208 A 
ATOM     37  N3  UNL     1      20.836  69.388  -6.034  0.00  0.00    -0.106 NA
ATOM     38  N4  UNL     1      20.328  70.539  -6.444  0.00  0.00    -0.021 NA
ATOM     39  N5  UNL     1      19.261  70.835  -5.720  0.00  0.00    -0.021 NA
ATOM     40  N6  UNL     1      19.062  69.883  -4.824  0.00  0.00    -0.106 NA
ENDBRANCH  33  36
ENDBRANCH  29  30
ENDBRANCH  28  29
ENDBRANCH  27  28
ENDBRANCH  26  27
ENDBRANCH  25  26
ENDBRANCH  24  25
ENDBRANCH   6  24
TORSDOF 11
ENDMDL
MODEL 2
REMARK VINA RESULT:      -9.8      1.995      3.120
REMARK  Name = ./data/4u7t_site2_bc02/pdb/l0c1.pdb
REMARK  11 active torsions:
REMARK  status: ('A' for Active; 'I' for Inactive)
REMARK    1  A    between atoms: O1_2  and  C2_3
REMARK    2  A    between atoms: C5_6  and  C6_7
REMARK    3  A    between atoms: N2_9  and  C7_10
REMARK    4  A    between atoms: C19_23  and  O3_24
REMARK    5  A    between atoms: O3_24  and  C20_25
REMARK    6  A    between atoms: C20_25  and  C21_26
REMARK    7  A    between atoms: C21_26  and  C22_27
REMARK    8  A    between atoms: C22_27  and  C23_28
REMARK    9  A    between atoms: C23_28  and  O4_29
REMARK   10  A    between atoms: O4_29  and  C24_30
REMARK   11  A    between atoms: C27_33  and  C28_34
REMARK                            x       y       z     vdW  Elec       q    Type
REMARK                         _______ _______ _______ _____ _____    ______ ____
ROOT
ATOM      1  C2  UNL     1      18.898  56.026  -2.533  0.00  0.00    +0.172 A 
ATOM      2  C3  UNL     1      18.777  55.467  -3.816  0.00  0.00    +0.040 A 
ATOM      3  C4  UNL     1      19.213  56.173  -4.940  0.00  0.00    +0.005 A 
ATOM      4  C5  UNL     1      19.774  57.456  -4.812  0.00  0.00    +0.019 A 
ATOM      5  C18 UNL     1      19.936  57.989  -3.523  0.00  0.00    +0.041 A 
ATOM      6  C19 UNL     1      19.489  57.290  -2.384  0.00  0.00    +0.172 A 
ENDROOT
BRANCH   4   7
ATOM      7  C6  UNL     1      20.123  58.236  -6.031  0.00  0.00    +0.086 C 
ATOM      8  N1  UNL     1      20.478  57.644  -7.129  0.00  0.00    -0.171 NA
ATOM      9  N2  UNL     1      20.534  58.571  -8.170  0.00  0.00    -0.222 N 
ATOM     10  C14 UNL     1      20.213  59.746  -7.737  0.00  0.00    +0.257 C 
ATOM     11  O2  UNL     1      20.161  60.872  -8.555  0.00  0.00    -0.270 OA
ATOM     12  C15 UNL     1      19.919  59.730  -6.264  0.00  0.00    +0.110 C 
ATOM     13  C16 UNL     1      20.953  60.604  -5.531  0.00  0.00    +0.015 C 
ATOM     14  C17 UNL     1      18.467  60.171  -6.000  0.00  0.00    +0.015 C 
BRANCH   9  15
ATOM     15  C7  UNL     1      20.907  58.248  -9.556  0.00  0.00    +0.108 C 
ATOM     16  C8  UNL     1      21.123  56.720  -9.743  0.00  0.00    +0.024 C 
ATOM     17  C9  UNL     1      20.778  56.248 -11.166  0.00  0.00    +0.002 C 
ATOM     18  C10 UNL     1      21.838  56.595 -12.215  0.00  0.00    +0.000 C 
ATOM     19  C11 UNL     1      22.102  58.105 -12.338  0.00  0.00    +0.000 C 
ATOM     20  C12 UNL     1      22.951  58.630 -11.171  0.00  0.00    +0.002 C 
ATOM     21  C13 UNL     1      22.123  59.121  -9.971  0.00  0.00    +0.024 C 
ENDBRANCH   9  15
ENDBRANCH   4   7
BRANCH   1  23
ATOM     22  C1  UNL     1      17.098  54.950  -1.167  0.00  0.00    +0.253 C 
ATOM     23  O1  UNL     1      18.443  55.360  -1.382  0.00  0.00    -0.468 OA
ENDBRANCH   1  23
BRANCH   6  24
ATOM     24  O3  UNL     1      19.607  57.817  -1.081  0.00  0.00    -0.472 OA
BRANCH  24  25
ATOM     25  C20 UNL     1      20.765  58.469  -0.553  0.00  0.00    +0.206 C 
BRANCH  25  26
ATOM     26  C21 UNL     1      20.369  59.497   0.516  0.00  0.00    +0.051 C 
BRANCH  26  27
ATOM     27  C22 UNL     1      21.122  60.817   0.305  0.00  0.00    +0.051 C 
BRANCH  27  28
ATOM     28  C23 UNL     1      22.138  60.704  -0.835  0.00  0.00    +0.206 C 
BRANCH  28  29
ATOM     29  O4  UNL     1      21.552  61.125  -2.067  0.00  0.00    -0.475 OA
BRANCH  29  30
ATOM     30  C24 UNL     1      21.107  62.426  -2.359  0.00  0.00    +0.139 A 
ATOM     31  C25 UNL     1      19.892  62.692  -3.018  0.00  0.00    +0.037 A 
ATOM     32  C26 UNL     1      19.492  64.012  -3.258  0.00  0.00    +0.006 A 
ATOM     33  C27 UNL     1      20.299  65.094  -2.853  0.00  0.00    +0.040 A 
ATOM     34  C29 UNL     1      21.519  64.816  -2.210  0.00  0.00    +0.006 A 
ATOM     35  C30 UNL     1      21.914  63.497  -1.964  0.00  0.00    +0.037 A 
BRANCH  33  36
ATOM     36  C28 UNL     1      19.867  66.502  -3.091  0.00  0.00    +0.208 A 
ATOM     37  N3  UNL     1      18.961  67.175  -2.349  0.00  0.00    -0.106 NA
ATOM     38  N4  UNL     1      18.868  68.376  -2.897  0.00  0.00    -0.021 NA
ATOM     39  N5  UNL     1      19.682  68.454  -3.937  0.00  0.00    -0.021 NA
ATOM     40  N6  UNL     1      20.315  67.302  -4.084  0.00  0.00    -0.106 NA
ENDBRANCH  33  36
ENDBRANCH  29  30
ENDBRANCH  28  29
ENDBRANCH  27  28
ENDBRANCH  26  27
ENDBRANCH  25  26
ENDBRANCH  24  25
ENDBRANCH   6  24
TORSDOF 11
ENDMDL
MODEL 3
REMARK VINA RESULT:      -9.3      4.316      6.183
REMARK  Name = ./data/4u7t_site2_bc02/pdb/l0c1.pdb
REMARK  11 active torsions:
REMARK  status: ('A' for Active; 'I' for Inactive)
REMARK    1  A    between atoms: O1_2  and  C2_3
REMARK    2  A    between atoms: C5_6  and  C6_7
REMARK    3  A    between atoms: N2_9  and  C7_10
REMARK    4  A    between atoms: C19_23  and  O3_24
REMARK    5  A    between atoms: O3_24  and  C20_25
REMARK    6  A    between atoms: C20_25  and  C21_26
REMARK    7  A    between atoms: C21_26  and  C22_27
REMARK    8  A    between atoms: C22_27  and  C23_28
REMARK    9  A    between atoms: C23_28  and  O4_29
REMARK   10  A    between atoms: O4_29  and  C24_30
REMARK   11  A    between atoms: C27_33  and  C28_34
REMARK                            x       y       z     vdW  Elec       q    Type
REMARK                         _______ _______ _______ _____ _____    ______ ____
ROOT
ATOM      1  C2  UNL     1      19.649  57.615  -2.373  0.00  0.00    +0.172 A 
ATOM      2  C3  UNL     1      19.257  56.420  -2.999  0.00  0.00    +0.040 A 
ATOM      3  C4  UNL     1      19.274  56.312  -4.391  0.00  0.00    +0.005 A 
ATOM      4  C5  UNL     1      19.675  57.395  -5.193  0.00  0.00    +0.019 A 
ATOM      5  C18 UNL     1      20.112  58.570  -4.560  0.00  0.00    +0.041 A 
ATOM      6  C19 UNL     1      20.088  58.693  -3.156  0.00  0.00    +0.172 A 
ENDROOT
BRANCH   4   7
ATOM      7  C6  UNL     1      19.573  57.297  -6.675  0.00  0.00    +0.086 C 
ATOM      8  N1  UNL     1      20.034  58.233  -7.444  0.00  0.00    -0.171 NA
ATOM      9  N2  UNL     1      20.019  57.807  -8.772  0.00  0.00    -0.222 N 
ATOM     10  C14 UNL     1      19.554  56.602  -8.846  0.00  0.00    +0.257 C 
ATOM     11  O2  UNL     1      19.439  55.903 -10.046  0.00  0.00    -0.270 OA
ATOM     12  C15 UNL     1      19.159  56.079  -7.496  0.00  0.00    +0.110 C 
ATOM     13  C16 UNL     1      17.642  55.822  -7.475  0.00  0.00    +0.015 C 
ATOM     14  C17 UNL     1      19.983  54.826  -7.141  0.00  0.00    +0.015 C 
BRANCH   9  15
ATOM     15  C7  UNL     1      20.469  58.617  -9.915  0.00  0.00    +0.108 C 
ATOM     16  C8  UNL     1      21.986  58.418 -10.188  0.00  0.00    +0.024 C 
ATOM     17  C9  UNL     1      22.343  58.586 -11.674  0.00  0.00    +0.002 C 
ATOM     18  C10 UNL     1      22.379  60.043 -12.148  0.00  0.00    +0.000 C 
ATOM     19  C11 UNL     1      21.041  60.778 -11.963  0.00  0.00    +0.000 C 
ATOM     20  C12 UNL     1      20.803  61.163 -10.495  0.00  0.00    +0.002 C 
ATOM     21  C13 UNL     1      20.048  60.095  -9.686  0.00  0.00    +0.024 C 
ENDBRANCH   9  15
ENDBRANCH   4   7
BRANCH   1  23
ATOM     22  C1  UNL     1      18.852  56.962  -0.091  0.00  0.00    +0.253 C 
ATOM     23  O1  UNL     1      19.617  57.773  -0.976  0.00  0.00    -0.468 OA
ENDBRANCH   1  23
BRANCH   6  24
ATOM     24  O3  UNL     1      20.487  59.874  -2.496  0.00  0.00    -0.472 OA
BRANCH  24  25
ATOM     25  C20 UNL     1      21.177  60.969  -3.102  0.00  0.00    +0.206 C 
BRANCH  25  26
ATOM     26  C21 UNL     1      20.492  62.300  -2.761  0.00  0.00    +0.051 C 
BRANCH  26  27
ATOM     27  C22 UNL     1      21.458  63.235  -2.024  0.00  0.00    +0.051 C 
BRANCH  27  28
ATOM     28  C23 UNL     1      22.588  62.452  -1.350  0.00  0.00    +0.206 C 
BRANCH  28  29
ATOM     29  O4  UNL     1      22.581  62.683   0.059  0.00  0.00    -0.475 OA
BRANCH  29  30
ATOM     30  C24 UNL     1      21.851  61.945   1.006  0.00  0.00    +0.139 A 
ATOM     31  C25 UNL     1      21.791  62.290   2.369  0.00  0.00    +0.037 A 
ATOM     32  C26 UNL     1      21.025  61.528   3.259  0.00  0.00    +0.006 A 
ATOM     33  C27 UNL     1      20.309  60.402   2.810  0.00  0.00    +0.040 A 
ATOM     34  C29 UNL     1      20.388  60.056   1.448  0.00  0.00    +0.006 A 
ATOM     35  C30 UNL     1      21.148  60.822   0.559  0.00  0.00    +0.037 A 
BRANCH  33  36
ATOM     36  C28 UNL     1      19.476  59.599   3.752  0.00  0.00    +0.208 A 
ATOM     37  N3  UNL     1      19.434  59.764   5.091  0.00  0.00    -0.106 NA
ATOM     38  N4  UNL     1      18.584  58.855   5.540  0.00  0.00    -0.021 NA
ATOM     39  N5  UNL     1      18.110  58.151   4.526  0.00  0.00    -0.021 NA
ATOM     40  N6  UNL     1      18.648  58.588   3.400  0.00  0.00    -0.106 NA
ENDBRANCH  33  36
ENDBRANCH  29  30
ENDBRANCH  28  29
ENDBRANCH  27  28
ENDBRANCH  26  27
ENDBRANCH  25  26
ENDBRANCH  24  25
ENDBRANCH   6  24
TORSDOF 11
ENDMDL
MODEL 4
REMARK VINA RESULT:      -9.3      4.578      9.722
REMARK  Name = ./data/4u7t_site2_bc02/pdb/l0c1.pdb
REMARK  11 active torsions:
REMARK  status: ('A' for Active; 'I' for Inactive)
REMARK    1  A    between atoms: O1_2  and  C2_3
REMARK    2  A    between atoms: C5_6  and  C6_7
REMARK    3  A    between atoms: N2_9  and  C7_10
REMARK    4  A    between atoms: C19_23  and  O3_24
REMARK    5  A    between atoms: O3_24  and  C20_25
REMARK    6  A    between atoms: C20_25  and  C21_26
REMARK    7  A    between atoms: C21_26  and  C22_27
REMARK    8  A    between atoms: C22_27  and  C23_28
REMARK    9  A    between atoms: C23_28  and  O4_29
REMARK   10  A    between atoms: O4_29  and  C24_30
REMARK   11  A    between atoms: C27_33  and  C28_34
REMARK                            x       y       z     vdW  Elec       q    Type
REMARK                         _______ _______ _______ _____ _____    ______ ____
ROOT
ATOM      1  C2  UNL     1      21.474  61.260   1.070  0.00  0.00    +0.172 A 
ATOM      2  C3  UNL     1      21.444  61.453   2.461  0.00  0.00    +0.040 A 
ATOM      3  C4  UNL     1      20.670  60.622   3.274  0.00  0.00    +0.005 A 
ATOM      4  C5  UNL     1      19.903  59.583   2.719  0.00  0.00    +0.019 A 
ATOM      5  C18 UNL     1      19.975  59.364   1.334  0.00  0.00    +0.041 A 
ATOM      6  C19 UNL     1      20.744  60.204   0.504  0.00  0.00    +0.172 A 
ENDROOT
BRANCH   4   7
ATOM      7  C6  UNL     1      18.996  58.785   3.591  0.00  0.00    +0.086 C 
ATOM      8  N1  UNL     1      17.884  58.298   3.137  0.00  0.00    -0.171 NA
ATOM      9  N2  UNL     1      17.335  57.418   4.069  0.00  0.00    -0.222 N 
ATOM     10  C14 UNL     1      18.098  57.343   5.111  0.00  0.00    +0.257 C 
ATOM     11  O2  UNL     1      17.817  56.526   6.203  0.00  0.00    -0.270 OA
ATOM     12  C15 UNL     1      19.293  58.243   4.986  0.00  0.00    +0.110 C 
ATOM     13  C16 UNL     1      19.232  59.323   6.081  0.00  0.00    +0.015 C 
ATOM     14  C17 UNL     1      20.595  57.420   5.030  0.00  0.00    +0.015 C 
BRANCH   9  15
ATOM     15  C7  UNL     1      16.072  56.687   3.886  0.00  0.00    +0.108 C 
ATOM     16  C8  UNL     1      15.793  56.406   2.382  0.00  0.00    +0.024 C 
ATOM     17  C9  UNL     1      14.997  55.109   2.165  0.00  0.00    +0.002 C 
ATOM     18  C10 UNL     1      13.504  55.230   2.488  0.00  0.00    +0.000 C 
ATOM     19  C11 UNL     1      13.228  55.640   3.944  0.00  0.00    +0.000 C 
ATOM     20  C12 UNL     1      13.493  57.135   4.173  0.00  0.00    +0.002 C 
ATOM     21  C13 UNL     1      14.933  57.451   4.615  0.00  0.00    +0.024 C 
ENDBRANCH   9  15
ENDBRANCH   4   7
BRANCH   1  23
ATOM     22  C1  UNL     1      23.633  62.222   0.246  0.00  0.00    +0.253 C 
ATOM     23  O1  UNL     1      22.216  62.093   0.215  0.00  0.00    -0.468 OA
ENDBRANCH   1  23
BRANCH   6  24
ATOM     24  O3  UNL     1      20.806  60.029  -0.895  0.00  0.00    -0.472 OA
BRANCH  24  25
ATOM     25  C20 UNL     1      21.188  58.824  -1.562  0.00  0.00    +0.206 C 
BRANCH  25  26
ATOM     26  C21 UNL     1      19.957  58.104  -2.131  0.00  0.00    +0.051 C 
BRANCH  26  27
ATOM     27  C22 UNL     1      20.125  57.846  -3.634  0.00  0.00    +0.051 C 
BRANCH  27  28
ATOM     28  C23 UNL     1      19.601  59.021  -4.464  0.00  0.00    +0.206 C 
BRANCH  28  29
ATOM     29  O4  UNL     1      20.450  60.158  -4.308  0.00  0.00    -0.475 OA
BRANCH  29  30
ATOM     30  C24 UNL     1      20.021  61.468  -4.035  0.00  0.00    +0.139 A 
ATOM     31  C25 UNL     1      18.786  61.980  -4.475  0.00  0.00    +0.037 A 
ATOM     32  C26 UNL     1      18.405  63.286  -4.148  0.00  0.00    +0.006 A 
ATOM     33  C27 UNL     1      19.250  64.113  -3.382  0.00  0.00    +0.040 A 
ATOM     34  C29 UNL     1      20.489  63.596  -2.960  0.00  0.00    +0.006 A 
ATOM     35  C30 UNL     1      20.866  62.289  -3.281  0.00  0.00    +0.037 A 
BRANCH  33  36
ATOM     36  C28 UNL     1      18.838  65.499  -3.015  0.00  0.00    +0.208 A 
ATOM     37  N3  UNL     1      19.621  66.406  -2.393  0.00  0.00    -0.106 NA
ATOM     38  N4  UNL     1      18.876  67.490  -2.253  0.00  0.00    -0.021 NA
ATOM     39  N5  UNL     1      17.676  67.274  -2.768  0.00  0.00    -0.021 NA
ATOM     40  N6  UNL     1      17.622  66.042  -3.248  0.00  0.00    -0.106 NA
ENDBRANCH  33  36
ENDBRANCH  29  30
ENDBRANCH  28  29
ENDBRANCH  27  28
ENDBRANCH  26  27
ENDBRANCH  25  26
ENDBRANCH  24  25
ENDBRANCH   6  24
TORSDOF 11
ENDMDL
MODEL 5
REMARK VINA RESULT:      -9.3      3.213      3.759
REMARK  Name = ./data/4u7t_site2_bc02/pdb/l0c1.pdb
REMARK  11 active torsions:
REMARK  status: ('A' for Active; 'I' for Inactive)
REMARK    1  A    between atoms: O1_2  and  C2_3
REMARK    2  A    between atoms: C5_6  and  C6_7
REMARK    3  A    between atoms: N2_9  and  C7_10
REMARK    4  A    between atoms: C19_23  and  O3_24
REMARK    5  A    between atoms: O3_24  and  C20_25
REMARK    6  A    between atoms: C20_25  and  C21_26
REMARK    7  A    between atoms: C21_26  and  C22_27
REMARK    8  A    between atoms: C22_27  and  C23_28
REMARK    9  A    between atoms: C23_28  and  O4_29
REMARK   10  A    between atoms: O4_29  and  C24_30
REMARK   11  A    between atoms: C27_33  and  C28_34
REMARK                            x       y       z     vdW  Elec       q    Type
REMARK                         _______ _______ _______ _____ _____    ______ ____
ROOT
ATOM      1  C2  UNL     1      19.603  57.773  -0.435  0.00  0.00    +0.172 A 
ATOM      2  C3  UNL     1      18.821  56.744  -0.985  0.00  0.00    +0.040 A 
ATOM      3  C4  UNL     1      18.885  56.460  -2.351  0.00  0.00    +0.005 A 
ATOM      4  C5  UNL     1      19.724  57.200  -3.202  0.00  0.00    +0.019 A 
ATOM      5  C18 UNL     1      20.538  58.195  -2.638  0.00  0.00    +0.041 A 
ATOM      6  C19 UNL     1      20.473  58.497  -1.264  0.00  0.00    +0.172 A 
ENDROOT
BRANCH   4   7
ATOM      7  C6  UNL     1      19.688  56.957  -4.671  0.00  0.00    +0.086 C 
ATOM      8  N1  UNL     1      19.831  57.930  -5.516  0.00  0.00    -0.171 NA
ATOM      9  N2  UNL     1      19.982  57.419  -6.806  0.00  0.00    -0.222 N 
ATOM     10  C14 UNL     1      19.940  56.127  -6.779  0.00  0.00    +0.257 C 
ATOM     11  O2  UNL     1      20.082  55.337  -7.918  0.00  0.00    -0.270 OA
ATOM     12  C15 UNL     1      19.712  55.611  -5.388  0.00  0.00    +0.110 C 
ATOM     13  C16 UNL     1      18.363  54.872  -5.335  0.00  0.00    +0.015 C 
ATOM     14  C17 UNL     1      20.895  54.729  -4.940  0.00  0.00    +0.015 C 
BRANCH   9  15
ATOM     15  C7  UNL     1      20.163  58.240  -8.014  0.00  0.00    +0.108 C 
ATOM     16  C8  UNL     1      21.557  58.000  -8.658  0.00  0.00    +0.024 C 
ATOM     17  C9  UNL     1      21.539  58.189 -10.184  0.00  0.00    +0.002 C 
ATOM     18  C10 UNL     1      21.509  59.654 -10.632  0.00  0.00    +0.000 C 
ATOM     19  C11 UNL     1      20.286  60.426 -10.110  0.00  0.00    +0.000 C 
ATOM     20  C12 UNL     1      20.434  60.786  -8.625  0.00  0.00    +0.002 C 
ATOM     21  C13 UNL     1      19.866  59.725  -7.667  0.00  0.00    +0.024 C 
ENDBRANCH   9  15
ENDBRANCH   4   7
BRANCH   1  23
ATOM     22  C1  UNL     1      19.861  57.219   1.992  0.00  0.00    +0.253 C 
ATOM     23  O1  UNL     1      19.544  58.110   0.929  0.00  0.00    -0.468 OA
ENDBRANCH   1  23
BRANCH   6  24
ATOM     24  O3  UNL     1      21.253  59.515  -0.677  0.00  0.00    -0.472 OA
BRANCH  24  25
ATOM     25  C20 UNL     1      20.742  60.644   0.036  0.00  0.00    +0.206 C 
BRANCH  25  26
ATOM     26  C21 UNL     1      21.884  61.442   0.681  0.00  0.00    +0.051 C 
BRANCH  26  27
ATOM     27  C22 UNL     1      22.808  62.031  -0.392  0.00  0.00    +0.051 C 
BRANCH  27  28
ATOM     28  C23 UNL     1      22.561  63.530  -0.582  0.00  0.00    +0.206 C 
BRANCH  28  29
ATOM     29  O4  UNL     1      22.236  63.812  -1.943  0.00  0.00    -0.475 OA
BRANCH  29  30
ATOM     30  C24 UNL     1      21.051  63.433  -2.597  0.00  0.00    +0.139 A 
ATOM     31  C25 UNL     1      20.852  62.154  -3.148  0.00  0.00    +0.037 A 
ATOM     32  C26 UNL     1      19.639  61.829  -3.765  0.00  0.00    +0.006 A 
ATOM     33  C27 UNL     1      18.600  62.777  -3.852  0.00  0.00    +0.040 A 
ATOM     34  C29 UNL     1      18.814  64.058  -3.312  0.00  0.00    +0.006 A 
ATOM     35  C30 UNL     1      20.024  64.378  -2.690  0.00  0.00    +0.037 A 
BRANCH  33  36
ATOM     36  C28 UNL     1      17.298  62.428  -4.492  0.00  0.00    +0.208 A 
ATOM     37  N3  UNL     1      17.152  61.688  -5.611  0.00  0.00    -0.106 NA
ATOM     38  N4  UNL     1      15.850  61.624  -5.835  0.00  0.00    -0.021 NA
ATOM     39  N5  UNL     1      15.205  62.294  -4.895  0.00  0.00    -0.021 NA
ATOM     40  N6  UNL     1      16.079  62.808  -4.045  0.00  0.00    -0.106 NA
ENDBRANCH  33  36
ENDBRANCH  29  30
ENDBRANCH  28  29
ENDBRANCH  27  28
ENDBRANCH  26  27
ENDBRANCH  25  26
ENDBRANCH  24  25
ENDBRANCH   6  24
TORSDOF 11
ENDMDL
MODEL 6
REMARK VINA RESULT:      -9.2      5.057     10.818
REMARK  Name = ./data/4u7t_site2_bc02/pdb/l0c1.pdb
REMARK  11 active torsions:
REMARK  status: ('A' for Active; 'I' for Inactive)
REMARK    1  A    between atoms: O1_2  and  C2_3
REMARK    2  A    between atoms: C5_6  and  C6_7
REMARK    3  A    between atoms: N2_9  and  C7_10
REMARK    4  A    between atoms: C19_23  and  O3_24
REMARK    5  A    between atoms: O3_24  and  C20_25
REMARK    6  A    between atoms: C20_25  and  C21_26
REMARK    7  A    between atoms: C21_26  and  C22_27
REMARK    8  A    between atoms: C22_27  and  C23_28
REMARK    9  A    between atoms: C23_28  and  O4_29
REMARK   10  A    between atoms: O4_29  and  C24_30
REMARK   11  A    between atoms: C27_33  and  C28_34
REMARK                            x       y       z     vdW  Elec       q    Type
REMARK                         _______ _______ _______ _____ _____    ______ ____
ROOT
ATOM      1  C2  UNL     1      21.971  62.001   0.366  0.00  0.00    +0.172 A 
ATOM      2  C3  UNL     1      21.803  62.296   1.729  0.00  0.00    +0.040 A 
ATOM      3  C4  UNL     1      21.093  61.425   2.560  0.00  0.00    +0.005 A 
ATOM      4  C5  UNL     1      20.528  60.244   2.050  0.00  0.00    +0.019 A 
ATOM      5  C18 UNL     1      20.740  59.931   0.697  0.00  0.00    +0.041 A 
ATOM      6  C19 UNL     1      21.445  60.808  -0.151  0.00  0.00    +0.172 A 
ENDROOT
BRANCH   4   7
ATOM      7  C6  UNL     1      19.678  59.391   2.926  0.00  0.00    +0.086 C 
ATOM      8  N1  UNL     1      18.667  58.736   2.449  0.00  0.00    -0.171 NA
ATOM      9  N2  UNL     1      18.178  57.852   3.411  0.00  0.00    -0.222 N 
ATOM     10  C14 UNL     1      18.879  57.943   4.494  0.00  0.00    +0.257 C 
ATOM     11  O2  UNL     1      18.637  57.165   5.625  0.00  0.00    -0.270 OA
ATOM     12  C15 UNL     1      19.956  58.981   4.369  0.00  0.00    +0.110 C 
ATOM     13  C16 UNL     1      19.691  60.111   5.382  0.00  0.00    +0.015 C 
ATOM     14  C17 UNL     1      21.346  58.339   4.539  0.00  0.00    +0.015 C 
BRANCH   9  15
ATOM     15  C7  UNL     1      17.031  56.952   3.213  0.00  0.00    +0.108 C 
ATOM     16  C8  UNL     1      16.848  56.589   1.713  0.00  0.00    +0.024 C 
ATOM     17  C9  UNL     1      16.240  55.190   1.517  0.00  0.00    +0.002 C 
ATOM     18  C10 UNL     1      14.734  55.119   1.787  0.00  0.00    +0.000 C 
ATOM     19  C11 UNL     1      14.351  55.535   3.217  0.00  0.00    +0.000 C 
ATOM     20  C12 UNL     1      14.407  57.058   3.400  0.00  0.00    +0.002 C 
ATOM     21  C13 UNL     1      15.774  57.579   3.877  0.00  0.00    +0.024 C 
ENDBRANCH   9  15
ENDBRANCH   4   7
BRANCH   1  23
ATOM     22  C1  UNL     1      22.027  63.881  -1.285  0.00  0.00    +0.253 C 
ATOM     23  O1  UNL     1      22.652  62.866  -0.508  0.00  0.00    -0.468 OA
ENDBRANCH   1  23
BRANCH   6  24
ATOM     24  O3  UNL     1      21.642  60.535  -1.521  0.00  0.00    -0.472 OA
BRANCH  24  25
ATOM     25  C20 UNL     1      20.612  60.479  -2.511  0.00  0.00    +0.206 C 
BRANCH  25  26
ATOM     26  C21 UNL     1      20.358  59.030  -2.951  0.00  0.00    +0.051 C 
BRANCH  26  27
ATOM     27  C22 UNL     1      19.584  58.992  -4.275  0.00  0.00    +0.051 C 
BRANCH  27  28
ATOM     28  C23 UNL     1      19.291  60.404  -4.791  0.00  0.00    +0.206 C 
BRANCH  28  29
ATOM     29  O4  UNL     1      18.808  60.352  -6.133  0.00  0.00    -0.475 OA
BRANCH  29  30
ATOM     30  C24 UNL     1      19.479  59.771  -7.223  0.00  0.00    +0.139 A 
ATOM     31  C25 UNL     1      18.841  58.946  -8.167  0.00  0.00    +0.037 A 
ATOM     32  C26 UNL     1      19.560  58.419  -9.246  0.00  0.00    +0.006 A 
ATOM     33  C27 UNL     1      20.932  58.697  -9.402  0.00  0.00    +0.040 A 
ATOM     34  C29 UNL     1      21.564  59.510  -8.444  0.00  0.00    +0.006 A 
ATOM     35  C30 UNL     1      20.843  60.042  -7.370  0.00  0.00    +0.037 A 
BRANCH  33  36
ATOM     36  C28 UNL     1      21.697  58.152 -10.562  0.00  0.00    +0.208 A 
ATOM     37  N3  UNL     1      21.680  56.866 -10.972  0.00  0.00    -0.106 NA
ATOM     38  N4  UNL     1      22.490  56.810 -12.017  0.00  0.00    -0.021 NA
ATOM     39  N5  UNL     1      22.992  58.011 -12.254  0.00  0.00    -0.021 NA
ATOM     40  N6  UNL     1      22.519  58.867 -11.363  0.00  0.00    -0.106 NA
ENDBRANCH  33  36
ENDBRANCH  29  30
ENDBRANCH  28  29
ENDBRANCH  27  28
ENDBRANCH  26  27
ENDBRANCH  25  26
ENDBRANCH  24  25
ENDBRANCH   6  24
TORSDOF 11
ENDMDL
MODEL 7
REMARK VINA RESULT:      -9.2      5.133      8.226
REMARK  Name = ./data/4u7t_site2_bc02/pdb/l0c1.pdb
REMARK  11 active torsions:
REMARK  status: ('A' for Active; 'I' for Inactive)
REMARK    1  A    between atoms: O1_2  and  C2_3
REMARK    2  A    between atoms: C5_6  and  C6_7
REMARK    3  A    between atoms: N2_9  and  C7_10
REMARK    4  A    between atoms: C19_23  and  O3_24
REMARK    5  A    between atoms: O3_24  and  C20_25
REMARK    6  A    between atoms: C20_25  and  C21_26
REMARK    7  A    between atoms: C21_26  and  C22_27
REMARK    8  A    between atoms: C22_27  and  C23_28
REMARK    9  A    between atoms: C23_28  and  O4_29
REMARK   10  A    between atoms: O4_29  and  C24_30
REMARK   11  A    between atoms: C27_33  and  C28_34
REMARK                            x       y       z     vdW  Elec       q    Type
REMARK                         _______ _______ _______ _____ _____    ______ ____
ROOT
ATOM      1  C2  UNL     1      20.682  63.055  -3.118  0.00  0.00    +0.172 A 
ATOM      2  C3  UNL     1      19.781  63.345  -4.155  0.00  0.00    +0.040 A 
ATOM      3  C4  UNL     1      19.552  62.419  -5.175  0.00  0.00    +0.005 A 
ATOM      4  C5  UNL     1      20.222  61.183  -5.189  0.00  0.00    +0.019 A 
ATOM      5  C18 UNL     1      21.085  60.879  -4.124  0.00  0.00    +0.041 A 
ATOM      6  C19 UNL     1      21.331  61.811  -3.096  0.00  0.00    +0.172 A 
ENDROOT
BRANCH   4   7
ATOM      7  C6  UNL     1      20.051  60.261  -6.346  0.00  0.00    +0.086 C 
ATOM      8  N1  UNL     1      20.906  60.239  -7.319  0.00  0.00    -0.171 NA
ATOM      9  N2  UNL     1      20.647  59.152  -8.155  0.00  0.00    -0.222 N 
ATOM     10  C14 UNL     1      19.633  58.484  -7.710  0.00  0.00    +0.257 C 
ATOM     11  O2  UNL     1      19.151  57.332  -8.328  0.00  0.00    -0.270 OA
ATOM     12  C15 UNL     1      19.057  59.111  -6.473  0.00  0.00    +0.110 C 
ATOM     13  C16 UNL     1      17.620  59.581  -6.765  0.00  0.00    +0.015 C 
ATOM     14  C17 UNL     1      19.137  58.132  -5.286  0.00  0.00    +0.015 C 
BRANCH   9  15
ATOM     15  C7  UNL     1      21.420  58.823  -9.362  0.00  0.00    +0.108 C 
ATOM     16  C8  UNL     1      20.900  59.610 -10.599  0.00  0.00    +0.024 C 
ATOM     17  C9  UNL     1      22.014  59.903 -11.618  0.00  0.00    +0.002 C 
ATOM     18  C10 UNL     1      22.416  58.695 -12.470  0.00  0.00    +0.000 C 
ATOM     19  C11 UNL     1      22.925  57.505 -11.639  0.00  0.00    +0.000 C 
ATOM     20  C12 UNL     1      21.772  56.756 -10.954  0.00  0.00    +0.002 C 
ATOM     21  C13 UNL     1      21.438  57.281  -9.547  0.00  0.00    +0.024 C 
ENDBRANCH   9  15
ENDBRANCH   4   7
BRANCH   1  23
ATOM     22  C1  UNL     1      20.482  65.312  -2.055  0.00  0.00    +0.253 C 
ATOM     23  O1  UNL     1      20.962  63.973  -2.091  0.00  0.00    -0.468 OA
ENDBRANCH   1  23
BRANCH   6  24
ATOM     24  O3  UNL     1      22.221  61.545  -2.034  0.00  0.00    -0.472 OA
BRANCH  24  25
ATOM     25  C20 UNL     1      22.011  60.581  -1.000  0.00  0.00    +0.206 C 
BRANCH  25  26
ATOM     26  C21 UNL     1      21.196  61.186   0.151  0.00  0.00    +0.051 C 
BRANCH  26  27
ATOM     27  C22 UNL     1      22.099  61.997   1.088  0.00  0.00    +0.051 C 
BRANCH  27  28
ATOM     28  C23 UNL     1      21.502  62.094   2.495  0.00  0.00    +0.206 C 
BRANCH  28  29
ATOM     29  O4  UNL     1      21.536  60.819   3.137  0.00  0.00    -0.475 OA
BRANCH  29  30
ATOM     30  C24 UNL     1      20.415  60.097   3.581  0.00  0.00    +0.139 A 
ATOM     31  C25 UNL     1      19.518  59.456   2.706  0.00  0.00    +0.037 A 
ATOM     32  C26 UNL     1      18.434  58.730   3.211  0.00  0.00    +0.006 A 
ATOM     33  C27 UNL     1      18.216  58.633   4.599  0.00  0.00    +0.040 A 
ATOM     34  C29 UNL     1      19.110  59.290   5.465  0.00  0.00    +0.006 A 
ATOM     35  C30 UNL     1      20.197  60.009   4.959  0.00  0.00    +0.037 A 
BRANCH  33  36
ATOM     36  C28 UNL     1      17.073  57.843   5.142  0.00  0.00    +0.208 A 
ATOM     37  N3  UNL     1      15.769  58.077   4.881  0.00  0.00    -0.106 NA
ATOM     38  N4  UNL     1      15.095  57.162   5.556  0.00  0.00    -0.021 NA
ATOM     39  N5  UNL     1      15.940  56.383   6.213  0.00  0.00    -0.021 NA
ATOM     40  N6  UNL     1      17.178  56.784   5.977  0.00  0.00    -0.106 NA
ENDBRANCH  33  36
ENDBRANCH  29  30
ENDBRANCH  28  29
ENDBRANCH  27  28
ENDBRANCH  26  27
ENDBRANCH  25  26
ENDBRANCH  24  25
ENDBRANCH   6  24
TORSDOF 11
ENDMDL
MODEL 8
REMARK VINA RESULT:      -9.1      5.312     10.500
REMARK  Name = ./data/4u7t_site2_bc02/pdb/l0c1.pdb
REMARK  11 active torsions:
REMARK  status: ('A' for Active; 'I' for Inactive)
REMARK    1  A    between atoms: O1_2  and  C2_3
REMARK    2  A    between atoms: C5_6  and  C6_7
REMARK    3  A    between atoms: N2_9  and  C7_10
REMARK    4  A    between atoms: C19_23  and  O3_24
REMARK    5  A    between atoms: O3_24  and  C20_25
REMARK    6  A    between atoms: C20_25  and  C21_26
REMARK    7  A    between atoms: C21_26  and  C22_27
REMARK    8  A    between atoms: C22_27  and  C23_28
REMARK    9  A    between atoms: C23_28  and  O4_29
REMARK   10  A    between atoms: O4_29  and  C24_30
REMARK   11  A    between atoms: C27_33  and  C28_34
REMARK                            x       y       z     vdW  Elec       q    Type
REMARK                         _______ _______ _______ _____ _____    ______ ____
ROOT
ATOM      1  C2  UNL     1      20.966  60.809   2.137  0.00  0.00    +0.172 A 
ATOM      2  C3  UNL     1      20.617  60.758   3.496  0.00  0.00    +0.040 A 
ATOM      3  C4  UNL     1      19.641  59.864   3.943  0.00  0.00    +0.005 A 
ATOM      4  C5  UNL     1      18.985  59.005   3.044  0.00  0.00    +0.019 A 
ATOM      5  C18 UNL     1      19.373  59.028   1.695  0.00  0.00    +0.041 A 
ATOM      6  C19 UNL     1      20.348  59.933   1.232  0.00  0.00    +0.172 A 
ENDROOT
BRANCH   4   7
ATOM      7  C6  UNL     1      17.867  58.145   3.523  0.00  0.00    +0.086 C 
ATOM      8  N1  UNL     1      17.213  58.434   4.604  0.00  0.00    -0.171 NA
ATOM      9  N2  UNL     1      16.090  57.614   4.713  0.00  0.00    -0.222 N 
ATOM     10  C14 UNL     1      16.029  56.809   3.701  0.00  0.00    +0.257 C 
ATOM     11  O2  UNL     1      15.003  55.884   3.526  0.00  0.00    -0.270 OA
ATOM     12  C15 UNL     1      17.192  57.002   2.772  0.00  0.00    +0.110 C 
ATOM     13  C16 UNL     1      18.036  55.715   2.742  0.00  0.00    +0.015 C 
ATOM     14  C17 UNL     1      16.700  57.427   1.375  0.00  0.00    +0.015 C 
BRANCH   9  15
ATOM     15  C7  UNL     1      15.123  57.664   5.820  0.00  0.00    +0.108 C 
ATOM     16  C8  UNL     1      14.867  59.125   6.282  0.00  0.00    +0.024 C 
ATOM     17  C9  UNL     1      13.445  59.326   6.833  0.00  0.00    +0.002 C 
ATOM     18  C10 UNL     1      13.237  58.771   8.246  0.00  0.00    +0.000 C 
ATOM     19  C11 UNL     1      13.507  57.261   8.353  0.00  0.00    +0.000 C 
ATOM     20  C12 UNL     1      15.011  56.952   8.352  0.00  0.00    +0.002 C 
ATOM     21  C13 UNL     1      15.596  56.709   6.950  0.00  0.00    +0.024 C 
ENDBRANCH   9  15
ENDBRANCH   4   7
BRANCH   1  23
ATOM     22  C1  UNL     1      22.007  63.083   2.029  0.00  0.00    +0.253 C 
ATOM     23  O1  UNL     1      21.921  61.716   1.644  0.00  0.00    -0.468 OA
ENDBRANCH   1  23
BRANCH   6  24
ATOM     24  O3  UNL     1      20.731  60.002  -0.124  0.00  0.00    -0.472 OA
BRANCH  24  25
ATOM     25  C20 UNL     1      21.155  58.895  -0.922  0.00  0.00    +0.206 C 
BRANCH  25  26
ATOM     26  C21 UNL     1      19.966  58.278  -1.672  0.00  0.00    +0.051 C 
BRANCH  26  27
ATOM     27  C22 UNL     1      20.352  57.943  -3.119  0.00  0.00    +0.051 C 
BRANCH  27  28
ATOM     28  C23 UNL     1      19.900  59.041  -4.085  0.00  0.00    +0.206 C 
BRANCH  28  29
ATOM     29  O4  UNL     1      20.701  60.211  -3.918  0.00  0.00    -0.475 OA
BRANCH  29  30
ATOM     30  C24 UNL     1      20.215  61.514  -3.719  0.00  0.00    +0.139 A 
ATOM     31  C25 UNL     1      18.985  61.963  -4.235  0.00  0.00    +0.037 A 
ATOM     32  C26 UNL     1      18.544  63.266  -3.980  0.00  0.00    +0.006 A 
ATOM     33  C27 UNL     1      19.323  64.153  -3.212  0.00  0.00    +0.040 A 
ATOM     34  C29 UNL     1      20.559  63.700  -2.714  0.00  0.00    +0.006 A 
ATOM     35  C30 UNL     1      20.995  62.395  -2.963  0.00  0.00    +0.037 A 
BRANCH  33  36
ATOM     36  C28 UNL     1      18.847  65.537  -2.922  0.00  0.00    +0.208 A 
ATOM     37  N3  UNL     1      17.582  65.978  -3.090  0.00  0.00    -0.106 NA
ATOM     38  N4  UNL     1      17.592  67.249  -2.725  0.00  0.00    -0.021 NA
ATOM     39  N5  UNL     1      18.810  67.592  -2.341  0.00  0.00    -0.021 NA
ATOM     40  N6  UNL     1      19.615  66.548  -2.455  0.00  0.00    -0.106 NA
ENDBRANCH  33  36
ENDBRANCH  29  30
ENDBRANCH  28  29
ENDBRANCH  27  28
ENDBRANCH  26  27
ENDBRANCH  25  26
ENDBRANCH  24  25
ENDBRANCH   6  24
TORSDOF 11
ENDMDL
MODEL 9
REMARK VINA RESULT:      -9.0      4.610      7.632
REMARK  Name = ./data/4u7t_site2_bc02/pdb/l0c1.pdb
REMARK  11 active torsions:
REMARK  status: ('A' for Active; 'I' for Inactive)
REMARK    1  A    between atoms: O1_2  and  C2_3
REMARK    2  A    between atoms: C5_6  and  C6_7
REMARK    3  A    between atoms: N2_9  and  C7_10
REMARK    4  A    between atoms: C19_23  and  O3_24
REMARK    5  A    between atoms: O3_24  and  C20_25
REMARK    6  A    between atoms: C20_25  and  C21_26
REMARK    7  A    between atoms: C21_26  and  C22_27
REMARK    8  A    between atoms: C22_27  and  C23_28
REMARK    9  A    between atoms: C23_28  and  O4_29
REMARK   10  A    between atoms: O4_29  and  C24_30
REMARK   11  A    between atoms: C27_33  and  C28_34
REMARK                            x       y       z     vdW  Elec       q    Type
REMARK                         _______ _______ _______ _____ _____    ______ ____
ROOT
ATOM      1  C2  UNL     1      20.551  59.729  -2.304  0.00  0.00    +0.172 A 
ATOM      2  C3  UNL     1      20.620  60.652  -3.360  0.00  0.00    +0.040 A 
ATOM      3  C4  UNL     1      20.352  60.250  -4.671  0.00  0.00    +0.005 A 
ATOM      4  C5  UNL     1      20.016  58.916  -4.960  0.00  0.00    +0.019 A 
ATOM      5  C18 UNL     1      19.902  58.009  -3.894  0.00  0.00    +0.041 A 
ATOM      6  C19 UNL     1      20.181  58.402  -2.570  0.00  0.00    +0.172 A 
ENDROOT
BRANCH   4   7
ATOM      7  C6  UNL     1      19.850  58.485  -6.376  0.00  0.00    +0.086 C 
ATOM      8  N1  UNL     1      20.284  59.214  -7.355  0.00  0.00    -0.171 NA
ATOM      9  N2  UNL     1      20.209  58.497  -8.550  0.00  0.00    -0.222 N 
ATOM     10  C14 UNL     1      19.733  57.315  -8.329  0.00  0.00    +0.257 C 
ATOM     11  O2  UNL     1      19.561  56.364  -9.332  0.00  0.00    -0.270 OA
ATOM     12  C15 UNL     1      19.393  57.119  -6.880  0.00  0.00    +0.110 C 
ATOM     13  C16 UNL     1      17.875  56.899  -6.740  0.00  0.00    +0.015 C 
ATOM     14  C17 UNL     1      20.222  55.966  -6.283  0.00  0.00    +0.015 C 
BRANCH   9  15
ATOM     15  C7  UNL     1      20.615  59.018  -9.864  0.00  0.00    +0.108 C 
ATOM     16  C8  UNL     1      22.076  58.614 -10.207  0.00  0.00    +0.024 C 
ATOM     17  C9  UNL     1      22.301  58.452 -11.720  0.00  0.00    +0.002 C 
ATOM     18  C10 UNL     1      22.418  59.777 -12.480  0.00  0.00    +0.000 C 
ATOM     19  C11 UNL     1      21.173  60.669 -12.345  0.00  0.00    +0.000 C 
ATOM     20  C12 UNL     1      21.112  61.355 -10.972  0.00  0.00    +0.002 C 
ATOM     21  C13 UNL     1      20.349  60.549  -9.907  0.00  0.00    +0.024 C 
ENDBRANCH   9  15
ENDBRANCH   4   7
BRANCH   1  23
ATOM     22  C1  UNL     1      21.914  60.942  -0.590  0.00  0.00    +0.253 C 
ATOM     23  O1  UNL     1      20.843  60.089  -0.976  0.00  0.00    -0.468 OA
ENDBRANCH   1  23
BRANCH   6  24
ATOM     24  O3  UNL     1      20.108  57.504  -1.485  0.00  0.00    -0.472 OA
BRANCH  24  25
ATOM     25  C20 UNL     1      18.911  57.128  -0.800  0.00  0.00    +0.206 C 
BRANCH  25  26
ATOM     26  C21 UNL     1      18.459  55.723  -1.225  0.00  0.00    +0.051 C 
BRANCH  26  27
ATOM     27  C22 UNL     1      16.954  55.543  -0.988  0.00  0.00    +0.051 C 
BRANCH  27  28
ATOM     28  C23 UNL     1      16.677  54.402  -0.005  0.00  0.00    +0.206 C 
BRANCH  28  29
ATOM     29  O4  UNL     1      16.387  54.923   1.292  0.00  0.00    -0.475 OA
BRANCH  29  30
ATOM     30  C24 UNL     1      17.119  55.923   1.954  0.00  0.00    +0.139 A 
ATOM     31  C25 UNL     1      18.353  55.682   2.587  0.00  0.00    +0.037 A 
ATOM     32  C26 UNL     1      19.046  56.727   3.208  0.00  0.00    +0.006 A 
ATOM     33  C27 UNL     1      18.520  58.034   3.218  0.00  0.00    +0.040 A 
ATOM     34  C29 UNL     1      17.278  58.262   2.597  0.00  0.00    +0.006 A 
ATOM     35  C30 UNL     1      16.590  57.218   1.970  0.00  0.00    +0.037 A 
BRANCH  33  36
ATOM     36  C28 UNL     1      19.265  59.154   3.863  0.00  0.00    +0.208 A 
ATOM     37  N3  UNL     1      19.350  59.372   5.192  0.00  0.00    -0.106 NA
ATOM     38  N4  UNL     1      20.090  60.459   5.334  0.00  0.00    -0.021 NA
ATOM     39  N5  UNL     1      20.458  60.904   4.144  0.00  0.00    -0.021 NA
ATOM     40  N6  UNL     1      19.957  60.114   3.208  0.00  0.00    -0.106 NA
ENDBRANCH  33  36
ENDBRANCH  29  30
ENDBRANCH  28  29
ENDBRANCH  27  28
ENDBRANCH  26  27
ENDBRANCH  25  26
ENDBRANCH  24  25
ENDBRANCH   6  24
TORSDOF 11
ENDMDL
