MODEL 1
REMARK VINA RESULT:      -9.3      0.000      0.000
REMARK  Name = ./data/4u7t_site2_bc02/pdb/l1c0.pdb
REMARK  11 active torsions:
REMARK  status: ('A' for Active; 'I' for Inactive)
REMARK    1  A    between atoms: O1_2  and  C2_3
REMARK    2  A    between atoms: C5_6  and  C6_7
REMARK    3  A    between atoms: N2_9  and  C7_10
REMARK    4  A    between atoms: C22_26  and  O3_27
REMARK    5  A    between atoms: O3_27  and  C23_28
REMARK    6  A    between atoms: C23_28  and  C24_29
REMARK    7  A    between atoms: C24_29  and  C25_30
REMARK    8  A    between atoms: C25_30  and  C26_31
REMARK    9  A    between atoms: C26_31  and  O4_32
REMARK   10  A    between atoms: O4_32  and  C27_33
REMARK   11  A    between atoms: C30_36  and  C31_37
REMARK                            x       y       z     vdW  Elec       q    Type
REMARK                         _______ _______ _______ _____ _____    ______ ____
ROOT
ATOM      1  C2  UNL     1      39.965  74.163  -5.361  0.00  0.00    +0.172 A 
ATOM      2  C3  UNL     1      39.393  73.107  -6.090  0.00  0.00    +0.040 A 
ATOM      3  C4  UNL     1      39.631  72.983  -7.459  0.00  0.00    +0.005 A 
ATOM      4  C5  UNL     1      40.452  73.903  -8.136  0.00  0.00    +0.018 A 
ATOM      5  C21 UNL     1      41.034  74.951  -7.398  0.00  0.00    +0.041 A 
ATOM      6  C22 UNL     1      40.777  75.098  -6.018  0.00  0.00    +0.172 A 
ENDROOT
BRANCH   4   7
ATOM      7  C6  UNL     1      40.690  73.746  -9.604  0.00  0.00    +0.079 C 
ATOM      8  N1  UNL     1      40.284  72.657 -10.189  0.00  0.00    -0.172 NA
ATOM      9  N2  UNL     1      40.447  72.387 -11.563  0.00  0.00    -0.222 N 
ATOM     10  C14 UNL     1      40.784  73.341 -12.402  0.00  0.00    +0.253 C 
ATOM     11  O2  UNL     1      40.840  73.069 -13.773  0.00  0.00    -0.271 OA
ATOM     12  C15 UNL     1      41.026  74.757 -11.893  0.00  0.00    +0.091 C 
ATOM     13  C16 UNL     1      42.067  75.534 -12.726  0.00  0.00    +0.035 C 
ATOM     14  C17 UNL     1      43.390  74.835 -12.650  0.00  0.00    -0.030 C 
ATOM     15  C18 UNL     1      43.812  74.332 -11.482  0.00  0.00    -0.030 C 
ATOM     16  C19 UNL     1      43.021  74.521 -10.208  0.00  0.00    +0.032 C 
ATOM     17  C20 UNL     1      41.485  74.753 -10.407  0.00  0.00    +0.056 C 
BRANCH   9  18
ATOM     18  C7  UNL     1      40.144  71.009 -12.004  0.00  0.00    +0.108 C 
ATOM     19  C8  UNL     1      41.440  70.250 -12.397  0.00  0.00    +0.024 C 
ATOM     20  C9  UNL     1      41.204  69.218 -13.512  0.00  0.00    +0.002 C 
ATOM     21  C10 UNL     1      40.552  67.923 -13.019  0.00  0.00    +0.000 C 
ATOM     22  C11 UNL     1      39.174  68.135 -12.379  0.00  0.00    +0.000 C 
ATOM     23  C12 UNL     1      39.276  68.756 -10.976  0.00  0.00    +0.002 C 
ATOM     24  C13 UNL     1      39.235  70.292 -10.968  0.00  0.00    +0.024 C 
ENDBRANCH   9  18
ENDBRANCH   4   7
BRANCH   1  26
ATOM     25  C1  UNL     1      38.589  74.919  -3.415  0.00  0.00    +0.253 C 
ATOM     26  O1  UNL     1      39.748  74.320  -3.983  0.00  0.00    -0.468 OA
ENDBRANCH   1  26
BRANCH   6  27
ATOM     27  O3  UNL     1      41.309  76.155  -5.260  0.00  0.00    -0.472 OA
BRANCH  27  28
ATOM     28  C23 UNL     1      42.687  76.523  -5.195  0.00  0.00    +0.206 C 
BRANCH  28  29
ATOM     29  C24 UNL     1      43.565  75.289  -4.972  0.00  0.00    +0.051 C 
BRANCH  29  30
ATOM     30  C25 UNL     1      43.491  74.809  -3.518  0.00  0.00    +0.051 C 
BRANCH  30  31
ATOM     31  C26 UNL     1      44.880  74.489  -2.965  0.00  0.00    +0.206 C 
BRANCH  31  32
ATOM     32  O4  UNL     1      44.824  73.272  -2.222  0.00  0.00    -0.475 OA
BRANCH  32  33
ATOM     33  C27 UNL     1      44.924  71.990  -2.778  0.00  0.00    +0.139 A 
ATOM     34  C28 UNL     1      44.487  70.905  -2.016  0.00  0.00    +0.037 A 
ATOM     35  C29 UNL     1      44.594  69.602  -2.504  0.00  0.00    +0.006 A 
ATOM     36  C30 UNL     1      45.126  69.358  -3.785  0.00  0.00    +0.040 A 
ATOM     37  C32 UNL     1      45.543  70.456  -4.564  0.00  0.00    +0.006 A 
ATOM     38  C33 UNL     1      45.449  71.759  -4.063  0.00  0.00    +0.037 A 
BRANCH  36  39
ATOM     39  C31 UNL     1      45.252  67.970  -4.300  0.00  0.00    +0.208 A 
ATOM     40  N3  UNL     1      45.001  66.847  -3.592  0.00  0.00    -0.106 NA
ATOM     41  N4  UNL     1      45.211  65.843  -4.425  0.00  0.00    -0.021 NA
ATOM     42  N5  UNL     1      45.582  66.314  -5.603  0.00  0.00    -0.021 NA
ATOM     43  N6  UNL     1      45.615  67.633  -5.559  0.00  0.00    -0.106 NA
ENDBRANCH  36  39
ENDBRANCH  32  33
ENDBRANCH  31  32
ENDBRANCH  30  31
ENDBRANCH  29  30
ENDBRANCH  28  29
ENDBRANCH  27  28
ENDBRANCH   6  27
TORSDOF 11
ENDMDL
MODEL 2
REMARK VINA RESULT:      -8.6      4.111      9.127
REMARK  Name = ./data/4u7t_site2_bc02/pdb/l1c0.pdb
REMARK  11 active torsions:
REMARK  status: ('A' for Active; 'I' for Inactive)
REMARK    1  A    between atoms: O1_2  and  C2_3
REMARK    2  A    between atoms: C5_6  and  C6_7
REMARK    3  A    between atoms: N2_9  and  C7_10
REMARK    4  A    between atoms: C22_26  and  O3_27
REMARK    5  A    between atoms: O3_27  and  C23_28
REMARK    6  A    between atoms: C23_28  and  C24_29
REMARK    7  A    between atoms: C24_29  and  C25_30
REMARK    8  A    between atoms: C25_30  and  C26_31
REMARK    9  A    between atoms: C26_31  and  O4_32
REMARK   10  A    between atoms: O4_32  and  C27_33
REMARK   11  A    between atoms: C30_36  and  C31_37
REMARK                            x       y       z     vdW  Elec       q    Type
REMARK                         _______ _______ _______ _____ _____    ______ ____
ROOT
ATOM      1  C2  UNL     1      37.653  69.756  -8.830  0.00  0.00    +0.172 A 
ATOM      2  C3  UNL     1      37.001  70.607  -7.923  0.00  0.00    +0.040 A 
ATOM      3  C4  UNL     1      37.628  71.765  -7.464  0.00  0.00    +0.005 A 
ATOM      4  C5  UNL     1      38.918  72.111  -7.903  0.00  0.00    +0.018 A 
ATOM      5  C21 UNL     1      39.562  71.262  -8.824  0.00  0.00    +0.041 A 
ATOM      6  C22 UNL     1      38.945  70.075  -9.272  0.00  0.00    +0.172 A 
ENDROOT
BRANCH   4   7
ATOM      7  C6  UNL     1      39.567  73.359  -7.394  0.00  0.00    +0.079 C 
ATOM      8  N1  UNL     1      40.728  73.697  -7.872  0.00  0.00    -0.172 NA
ATOM      9  N2  UNL     1      41.443  74.847  -7.477  0.00  0.00    -0.222 N 
ATOM     10  C14 UNL     1      40.857  75.801  -6.789  0.00  0.00    +0.253 C 
ATOM     11  O2  UNL     1      41.560  76.974  -6.496  0.00  0.00    -0.271 OA
ATOM     12  C15 UNL     1      39.393  75.667  -6.387  0.00  0.00    +0.091 C 
ATOM     13  C16 UNL     1      39.059  76.380  -5.060  0.00  0.00    +0.035 C 
ATOM     14  C17 UNL     1      39.851  75.766  -3.947  0.00  0.00    -0.030 C 
ATOM     15  C18 UNL     1      39.999  74.436  -3.891  0.00  0.00    -0.030 C 
ATOM     16  C19 UNL     1      39.316  73.521  -4.882  0.00  0.00    +0.032 C 
ATOM     17  C20 UNL     1      38.975  74.175  -6.264  0.00  0.00    +0.056 C 
BRANCH   9  18
ATOM     18  C7  UNL     1      42.842  74.945  -7.945  0.00  0.00    +0.108 C 
ATOM     19  C8  UNL     1      43.752  73.931  -7.200  0.00  0.00    +0.024 C 
ATOM     20  C9  UNL     1      45.191  74.443  -7.031  0.00  0.00    +0.002 C 
ATOM     21  C10 UNL     1      46.037  74.324  -8.303  0.00  0.00    +0.000 C 
ATOM     22  C11 UNL     1      45.472  75.114  -9.491  0.00  0.00    +0.000 C 
ATOM     23  C12 UNL     1      44.238  74.434 -10.107  0.00  0.00    +0.002 C 
ATOM     24  C13 UNL     1      42.904  74.889  -9.496  0.00  0.00    +0.024 C 
ENDBRANCH   9  18
ENDBRANCH   4   7
BRANCH   1  26
ATOM     25  C1  UNL     1      36.639  68.389 -10.663  0.00  0.00    +0.253 C 
ATOM     26  O1  UNL     1      37.054  68.582  -9.315  0.00  0.00    -0.468 OA
ENDBRANCH   1  26
BRANCH   6  27
ATOM     27  O3  UNL     1      39.575  69.186 -10.160  0.00  0.00    -0.472 OA
BRANCH  27  28
ATOM     28  C23 UNL     1      40.775  68.458  -9.900  0.00  0.00    +0.206 C 
BRANCH  28  29
ATOM     29  C24 UNL     1      41.249  67.733 -11.162  0.00  0.00    +0.051 C 
BRANCH  29  30
ATOM     30  C25 UNL     1      40.213  67.837 -12.287  0.00  0.00    +0.051 C 
BRANCH  30  31
ATOM     31  C26 UNL     1      40.808  68.488 -13.535  0.00  0.00    +0.206 C 
BRANCH  31  32
ATOM     32  O4  UNL     1      41.768  69.469 -13.145  0.00  0.00    -0.475 OA
BRANCH  32  33
ATOM     33  C27 UNL     1      41.538  70.851 -13.129  0.00  0.00    +0.139 A 
ATOM     34  C28 UNL     1      41.695  71.558 -14.323  0.00  0.00    +0.037 A 
ATOM     35  C29 UNL     1      41.513  72.941 -14.361  0.00  0.00    +0.006 A 
ATOM     36  C30 UNL     1      41.148  73.648 -13.199  0.00  0.00    +0.040 A 
ATOM     37  C32 UNL     1      40.966  72.930 -12.001  0.00  0.00    +0.006 A 
ATOM     38  C33 UNL     1      41.165  71.545 -11.964  0.00  0.00    +0.037 A 
BRANCH  36  39
ATOM     39  C31 UNL     1      40.967  75.123 -13.236  0.00  0.00    +0.208 A 
ATOM     40  N3  UNL     1      41.077  75.897 -14.338  0.00  0.00    -0.106 NA
ATOM     41  N4  UNL     1      40.820  77.130 -13.937  0.00  0.00    -0.021 NA
ATOM     42  N5  UNL     1      40.563  77.130 -12.640  0.00  0.00    -0.021 NA
ATOM     43  N6  UNL     1      40.644  75.897 -12.176  0.00  0.00    -0.106 NA
ENDBRANCH  36  39
ENDBRANCH  32  33
ENDBRANCH  31  32
ENDBRANCH  30  31
ENDBRANCH  29  30
ENDBRANCH  28  29
ENDBRANCH  27  28
ENDBRANCH   6  27
TORSDOF 11
ENDMDL
MODEL 3
REMARK VINA RESULT:      -8.3      2.034      4.055
REMARK  Name = ./data/4u7t_site2_bc02/pdb/l1c0.pdb
REMARK  11 active torsions:
REMARK  status: ('A' for Active; 'I' for Inactive)
REMARK    1  A    between atoms: O1_2  and  C2_3
REMARK    2  A    between atoms: C5_6  and  C6_7
REMARK    3  A    between atoms: N2_9  and  C7_10
REMARK    4  A    between atoms: C22_26  and  O3_27
REMARK    5  A    between atoms: O3_27  and  C23_28
REMARK    6  A    between atoms: C23_28  and  C24_29
REMARK    7  A    between atoms: C24_29  and  C25_30
REMARK    8  A    between atoms: C25_30  and  C26_31
REMARK    9  A    between atoms: C26_31  and  O4_32
REMARK   10  A    between atoms: O4_32  and  C27_33
REMARK   11  A    between atoms: C30_36  and  C31_37
REMARK                            x       y       z     vdW  Elec       q    Type
REMARK                         _______ _______ _______ _____ _____    ______ ____
ROOT
ATOM      1  C2  UNL     1      40.057  74.092  -7.450  0.00  0.00    +0.172 A 
ATOM      2  C3  UNL     1      39.388  72.860  -7.530  0.00  0.00    +0.040 A 
ATOM      3  C4  UNL     1      39.565  72.029  -8.637  0.00  0.00    +0.005 A 
ATOM      4  C5  UNL     1      40.420  72.401  -9.690  0.00  0.00    +0.018 A 
ATOM      5  C21 UNL     1      41.100  73.631  -9.598  0.00  0.00    +0.041 A 
ATOM      6  C22 UNL     1      40.906  74.488  -8.494  0.00  0.00    +0.172 A 
ENDROOT
BRANCH   4   7
ATOM      7  C6  UNL     1      40.591  71.491 -10.864  0.00  0.00    +0.079 C 
ATOM      8  N1  UNL     1      40.843  72.015 -12.027  0.00  0.00    -0.172 NA
ATOM      9  N2  UNL     1      41.025  71.269 -13.210  0.00  0.00    -0.222 N 
ATOM     10  C14 UNL     1      41.218  69.970 -13.164  0.00  0.00    +0.253 C 
ATOM     11  O2  UNL     1      41.496  69.270 -14.343  0.00  0.00    -0.271 OA
ATOM     12  C15 UNL     1      41.226  69.244 -11.825  0.00  0.00    +0.091 C 
ATOM     13  C16 UNL     1      40.724  67.788 -11.918  0.00  0.00    +0.035 C 
ATOM     14  C17 UNL     1      39.300  67.779 -12.385  0.00  0.00    -0.030 C 
ATOM     15  C18 UNL     1      38.436  68.681 -11.903  0.00  0.00    -0.030 C 
ATOM     16  C19 UNL     1      38.838  69.668 -10.830  0.00  0.00    +0.032 C 
ATOM     17  C20 UNL     1      40.368  69.996 -10.769  0.00  0.00    +0.056 C 
BRANCH   9  18
ATOM     18  C7  UNL     1      41.064  72.037 -14.473  0.00  0.00    +0.108 C 
ATOM     19  C8  UNL     1      40.726  73.532 -14.228  0.00  0.00    +0.024 C 
ATOM     20  C9  UNL     1      40.016  74.181 -15.428  0.00  0.00    +0.002 C 
ATOM     21  C10 UNL     1      40.962  74.544 -16.576  0.00  0.00    +0.000 C 
ATOM     22  C11 UNL     1      41.707  73.338 -17.162  0.00  0.00    +0.000 C 
ATOM     23  C12 UNL     1      42.831  72.844 -16.236  0.00  0.00    +0.002 C 
ATOM     24  C13 UNL     1      42.389  71.764 -15.237  0.00  0.00    +0.024 C 
ENDBRANCH   9  18
ENDBRANCH   4   7
BRANCH   1  26
ATOM     25  C1  UNL     1      38.984  76.040  -6.305  0.00  0.00    +0.253 C 
ATOM     26  O1  UNL     1      39.904  74.953  -6.353  0.00  0.00    -0.468 OA
ENDBRANCH   1  26
BRANCH   6  27
ATOM     27  O3  UNL     1      41.537  75.739  -8.390  0.00  0.00    -0.472 OA
BRANCH  27  28
ATOM     28  C23 UNL     1      42.936  75.954  -8.204  0.00  0.00    +0.206 C 
BRANCH  28  29
ATOM     29  C24 UNL     1      43.528  74.886  -7.280  0.00  0.00    +0.051 C 
BRANCH  29  30
ATOM     30  C25 UNL     1      44.205  75.519  -6.059  0.00  0.00    +0.051 C 
BRANCH  30  31
ATOM     31  C26 UNL     1      45.642  75.026  -5.899  0.00  0.00    +0.206 C 
BRANCH  31  32
ATOM     32  O4  UNL     1      45.727  74.178  -4.755  0.00  0.00    -0.475 OA
BRANCH  32  33
ATOM     33  C27 UNL     1      45.634  72.780  -4.786  0.00  0.00    +0.139 A 
ATOM     34  C28 UNL     1      44.965  72.141  -3.740  0.00  0.00    +0.037 A 
ATOM     35  C29 UNL     1      44.870  70.749  -3.700  0.00  0.00    +0.006 A 
ATOM     36  C30 UNL     1      45.429  69.963  -4.726  0.00  0.00    +0.040 A 
ATOM     37  C32 UNL     1      46.081  70.611  -5.795  0.00  0.00    +0.006 A 
ATOM     38  C33 UNL     1      46.188  72.006  -5.822  0.00  0.00    +0.037 A 
BRANCH  36  39
ATOM     39  C31 UNL     1      45.339  68.481  -4.677  0.00  0.00    +0.208 A 
ATOM     40  N3  UNL     1      45.704  67.642  -5.671  0.00  0.00    -0.106 NA
ATOM     41  N4  UNL     1      45.485  66.422  -5.210  0.00  0.00    -0.021 NA
ATOM     42  N5  UNL     1      44.999  66.494  -3.983  0.00  0.00    -0.021 NA
ATOM     43  N6  UNL     1      44.899  67.759  -3.622  0.00  0.00    -0.106 NA
ENDBRANCH  36  39
ENDBRANCH  32  33
ENDBRANCH  31  32
ENDBRANCH  30  31
ENDBRANCH  29  30
ENDBRANCH  28  29
ENDBRANCH  27  28
ENDBRANCH   6  27
TORSDOF 11
ENDMDL
MODEL 4
REMARK VINA RESULT:      -8.0      4.128      9.348
REMARK  Name = ./data/4u7t_site2_bc02/pdb/l1c0.pdb
REMARK  11 active torsions:
REMARK  status: ('A' for Active; 'I' for Inactive)
REMARK    1  A    between atoms: O1_2  and  C2_3
REMARK    2  A    between atoms: C5_6  and  C6_7
REMARK    3  A    between atoms: N2_9  and  C7_10
REMARK    4  A    between atoms: C22_26  and  O3_27
REMARK    5  A    between atoms: O3_27  and  C23_28
REMARK    6  A    between atoms: C23_28  and  C24_29
REMARK    7  A    between atoms: C24_29  and  C25_30
REMARK    8  A    between atoms: C25_30  and  C26_31
REMARK    9  A    between atoms: C26_31  and  O4_32
REMARK   10  A    between atoms: O4_32  and  C27_33
REMARK   11  A    between atoms: C30_36  and  C31_37
REMARK                            x       y       z     vdW  Elec       q    Type
REMARK                         _______ _______ _______ _____ _____    ______ ____
ROOT
ATOM      1  C2  UNL     1      37.950  69.711  -8.929  0.00  0.00    +0.172 A 
ATOM      2  C3  UNL     1      37.404  70.638  -8.026  0.00  0.00    +0.040 A 
ATOM      3  C4  UNL     1      38.148  71.741  -7.608  0.00  0.00    +0.005 A 
ATOM      4  C5  UNL     1      39.453  71.955  -8.084  0.00  0.00    +0.018 A 
ATOM      5  C21 UNL     1      39.992  71.031  -9.000  0.00  0.00    +0.041 A 
ATOM      6  C22 UNL     1      39.255  69.899  -9.408  0.00  0.00    +0.172 A 
ENDROOT
BRANCH   4   7
ATOM      7  C6  UNL     1      40.229  73.146  -7.618  0.00  0.00    +0.079 C 
ATOM      8  N1  UNL     1      40.042  73.575  -6.405  0.00  0.00    -0.172 NA
ATOM      9  N2  UNL     1      40.709  74.685  -5.846  0.00  0.00    -0.222 N 
ATOM     10  C14 UNL     1      41.767  75.201  -6.431  0.00  0.00    +0.253 C 
ATOM     11  O2  UNL     1      42.468  76.236  -5.804  0.00  0.00    -0.271 OA
ATOM     12  C15 UNL     1      42.278  74.615  -7.742  0.00  0.00    +0.091 C 
ATOM     13  C16 UNL     1      42.958  75.660  -8.651  0.00  0.00    +0.035 C 
ATOM     14  C17 UNL     1      41.965  76.717  -9.028  0.00  0.00    -0.030 C 
ATOM     15  C18 UNL     1      40.713  76.369  -9.350  0.00  0.00    -0.030 C 
ATOM     16  C19 UNL     1      40.288  74.920  -9.421  0.00  0.00    +0.032 C 
ATOM     17  C20 UNL     1      41.131  73.936  -8.542  0.00  0.00    +0.056 C 
BRANCH   9  18
ATOM     18  C7  UNL     1      40.200  75.172  -4.545  0.00  0.00    +0.108 C 
ATOM     19  C8  UNL     1      38.676  74.911  -4.409  0.00  0.00    +0.024 C 
ATOM     20  C9  UNL     1      37.969  75.978  -3.558  0.00  0.00    +0.002 C 
ATOM     21  C10 UNL     1      38.173  75.795  -2.051  0.00  0.00    +0.000 C 
ATOM     22  C11 UNL     1      39.644  75.856  -1.620  0.00  0.00    +0.000 C 
ATOM     23  C12 UNL     1      40.413  74.579  -1.998  0.00  0.00    +0.002 C 
ATOM     24  C13 UNL     1      41.080  74.639  -3.382  0.00  0.00    +0.024 C 
ENDBRANCH   9  18
ENDBRANCH   4   7
BRANCH   1  26
ATOM     25  C1  UNL     1      36.548  68.516 -10.620  0.00  0.00    +0.253 C 
ATOM     26  O1  UNL     1      37.232  68.590  -9.373  0.00  0.00    -0.468 OA
ENDBRANCH   1  26
BRANCH   6  27
ATOM     27  O3  UNL     1      39.776  68.937 -10.290  0.00  0.00    -0.472 OA
BRANCH  27  28
ATOM     28  C23 UNL     1      41.033  68.275 -10.154  0.00  0.00    +0.206 C 
BRANCH  28  29
ATOM     29  C24 UNL     1      41.122  67.085 -11.114  0.00  0.00    +0.051 C 
BRANCH  29  30
ATOM     30  C25 UNL     1      40.923  67.527 -12.569  0.00  0.00    +0.051 C 
BRANCH  30  31
ATOM     31  C26 UNL     1      42.004  68.517 -13.003  0.00  0.00    +0.206 C 
BRANCH  31  32
ATOM     32  O4  UNL     1      41.437  69.473 -13.899  0.00  0.00    -0.475 OA
BRANCH  32  33
ATOM     33  C27 UNL     1      41.483  70.862 -13.719  0.00  0.00    +0.139 A 
ATOM     34  C28 UNL     1      41.160  71.374 -12.461  0.00  0.00    +0.037 A 
ATOM     35  C29 UNL     1      41.156  72.751 -12.232  0.00  0.00    +0.006 A 
ATOM     36  C30 UNL     1      41.497  73.650 -13.262  0.00  0.00    +0.040 A 
ATOM     37  C32 UNL     1      41.848  73.129 -14.524  0.00  0.00    +0.006 A 
ATOM     38  C33 UNL     1      41.835  71.749 -14.753  0.00  0.00    +0.037 A 
BRANCH  36  39
ATOM     39  C31 UNL     1      41.479  75.116 -13.023  0.00  0.00    +0.208 A 
ATOM     40  N3  UNL     1      42.557  75.872 -12.722  0.00  0.00    -0.106 NA
ATOM     41  N4  UNL     1      42.108  77.111 -12.615  0.00  0.00    -0.021 NA
ATOM     42  N5  UNL     1      40.805  77.130 -12.835  0.00  0.00    -0.021 NA
ATOM     43  N6  UNL     1      40.384  75.906 -13.094  0.00  0.00    -0.106 NA
ENDBRANCH  36  39
ENDBRANCH  32  33
ENDBRANCH  31  32
ENDBRANCH  30  31
ENDBRANCH  29  30
ENDBRANCH  28  29
ENDBRANCH  27  28
ENDBRANCH   6  27
TORSDOF 11
ENDMDL
MODEL 5
REMARK VINA RESULT:      -7.8      2.984      9.441
REMARK  Name = ./data/4u7t_site2_bc02/pdb/l1c0.pdb
REMARK  11 active torsions:
REMARK  status: ('A' for Active; 'I' for Inactive)
REMARK    1  A    between atoms: O1_2  and  C2_3
REMARK    2  A    between atoms: C5_6  and  C6_7
REMARK    3  A    between atoms: N2_9  and  C7_10
REMARK    4  A    between atoms: C22_26  and  O3_27
REMARK    5  A    between atoms: O3_27  and  C23_28
REMARK    6  A    between atoms: C23_28  and  C24_29
REMARK    7  A    between atoms: C24_29  and  C25_30
REMARK    8  A    between atoms: C25_30  and  C26_31
REMARK    9  A    between atoms: C26_31  and  O4_32
REMARK   10  A    between atoms: O4_32  and  C27_33
REMARK   11  A    between atoms: C30_36  and  C31_37
REMARK                            x       y       z     vdW  Elec       q    Type
REMARK                         _______ _______ _______ _____ _____    ______ ____
ROOT
ATOM      1  C2  UNL     1      40.998  74.172  -9.751  0.00  0.00    +0.172 A 
ATOM      2  C3  UNL     1      41.900  75.176  -9.360  0.00  0.00    +0.040 A 
ATOM      3  C4  UNL     1      42.273  75.309  -8.023  0.00  0.00    +0.005 A 
ATOM      4  C5  UNL     1      41.764  74.442  -7.040  0.00  0.00    +0.018 A 
ATOM      5  C21 UNL     1      40.872  73.428  -7.439  0.00  0.00    +0.041 A 
ATOM      6  C22 UNL     1      40.469  73.303  -8.786  0.00  0.00    +0.172 A 
ENDROOT
BRANCH   4   7
ATOM      7  C6  UNL     1      42.182  74.609  -5.614  0.00  0.00    +0.079 C 
ATOM      8  N1  UNL     1      43.146  73.867  -5.156  0.00  0.00    -0.172 NA
ATOM      9  N2  UNL     1      43.633  73.926  -3.834  0.00  0.00    -0.222 N 
ATOM     10  C14 UNL     1      43.320  74.930  -3.045  0.00  0.00    +0.253 C 
ATOM     11  O2  UNL     1      43.896  75.016  -1.773  0.00  0.00    -0.271 OA
ATOM     12  C15 UNL     1      42.404  76.040  -3.546  0.00  0.00    +0.091 C 
ATOM     13  C16 UNL     1      41.556  76.680  -2.428  0.00  0.00    +0.035 C 
ATOM     14  C17 UNL     1      40.658  75.644  -1.824  0.00  0.00    -0.030 C 
ATOM     15  C18 UNL     1      40.036  74.760  -2.615  0.00  0.00    -0.030 C 
ATOM     16  C19 UNL     1      40.151  74.827  -4.121  0.00  0.00    +0.032 C 
ATOM     17  C20 UNL     1      41.447  75.524  -4.658  0.00  0.00    +0.056 C 
BRANCH   9  18
ATOM     18  C7  UNL     1      44.561  72.850  -3.424  0.00  0.00    +0.108 C 
ATOM     19  C8  UNL     1      44.093  72.181  -2.104  0.00  0.00    +0.024 C 
ATOM     20  C9  UNL     1      45.267  71.673  -1.252  0.00  0.00    +0.002 C 
ATOM     21  C10 UNL     1      45.862  70.353  -1.754  0.00  0.00    +0.000 C 
ATOM     22  C11 UNL     1      46.415  70.433  -3.182  0.00  0.00    +0.000 C 
ATOM     23  C12 UNL     1      45.297  70.466  -4.237  0.00  0.00    +0.002 C 
ATOM     24  C13 UNL     1      44.830  71.882  -4.609  0.00  0.00    +0.024 C 
ENDBRANCH   9  18
ENDBRANCH   4   7
BRANCH   1  26
ATOM     25  C1  UNL     1      41.172  74.703 -12.188  0.00  0.00    +0.253 C 
ATOM     26  O1  UNL     1      40.599  74.007 -11.086  0.00  0.00    -0.468 OA
ENDBRANCH   1  26
BRANCH   6  27
ATOM     27  O3  UNL     1      39.550  72.329  -9.211  0.00  0.00    -0.472 OA
BRANCH  27  28
ATOM     28  C23 UNL     1      39.397  71.025  -8.649  0.00  0.00    +0.206 C 
BRANCH  28  29
ATOM     29  C24 UNL     1      37.917  70.714  -8.407  0.00  0.00    +0.051 C 
BRANCH  29  30
ATOM     30  C25 UNL     1      37.568  69.289  -8.852  0.00  0.00    +0.051 C 
BRANCH  30  31
ATOM     31  C26 UNL     1      37.154  69.250 -10.323  0.00  0.00    +0.206 C 
BRANCH  31  32
ATOM     32  O4  UNL     1      38.117  68.504 -11.066  0.00  0.00    -0.475 OA
BRANCH  32  33
ATOM     33  C27 UNL     1      39.121  69.067 -11.865  0.00  0.00    +0.139 A 
ATOM     34  C28 UNL     1      39.037  70.428 -12.168  0.00  0.00    +0.037 A 
ATOM     35  C29 UNL     1      39.990  71.036 -12.987  0.00  0.00    +0.006 A 
ATOM     36  C30 UNL     1      41.067  70.292 -13.507  0.00  0.00    +0.040 A 
ATOM     37  C32 UNL     1      41.165  68.925 -13.179  0.00  0.00    +0.006 A 
ATOM     38  C33 UNL     1      40.198  68.317 -12.371  0.00  0.00    +0.037 A 
BRANCH  36  39
ATOM     39  C31 UNL     1      42.074  70.936 -14.390  0.00  0.00    +0.208 A 
ATOM     40  N3  UNL     1      42.279  72.266 -14.502  0.00  0.00    -0.106 NA
ATOM     41  N4  UNL     1      43.270  72.405 -15.366  0.00  0.00    -0.021 NA
ATOM     42  N5  UNL     1      43.666  71.215 -15.780  0.00  0.00    -0.021 NA
ATOM     43  N6  UNL     1      42.944  70.280 -15.190  0.00  0.00    -0.106 NA
ENDBRANCH  36  39
ENDBRANCH  32  33
ENDBRANCH  31  32
ENDBRANCH  30  31
ENDBRANCH  29  30
ENDBRANCH  28  29
ENDBRANCH  27  28
ENDBRANCH   6  27
TORSDOF 11
ENDMDL
MODEL 6
REMARK VINA RESULT:      -7.7      2.670      5.024
REMARK  Name = ./data/4u7t_site2_bc02/pdb/l1c0.pdb
REMARK  11 active torsions:
REMARK  status: ('A' for Active; 'I' for Inactive)
REMARK    1  A    between atoms: O1_2  and  C2_3
REMARK    2  A    between atoms: C5_6  and  C6_7
REMARK    3  A    between atoms: N2_9  and  C7_10
REMARK    4  A    between atoms: C22_26  and  O3_27
REMARK    5  A    between atoms: O3_27  and  C23_28
REMARK    6  A    between atoms: C23_28  and  C24_29
REMARK    7  A    between atoms: C24_29  and  C25_30
REMARK    8  A    between atoms: C25_30  and  C26_31
REMARK    9  A    between atoms: C26_31  and  O4_32
REMARK   10  A    between atoms: O4_32  and  C27_33
REMARK   11  A    between atoms: C30_36  and  C31_37
REMARK                            x       y       z     vdW  Elec       q    Type
REMARK                         _______ _______ _______ _____ _____    ______ ____
ROOT
ATOM      1  C2  UNL     1      40.099  74.578  -8.008  0.00  0.00    +0.172 A 
ATOM      2  C3  UNL     1      39.866  73.210  -7.795  0.00  0.00    +0.040 A 
ATOM      3  C4  UNL     1      40.038  72.294  -8.833  0.00  0.00    +0.005 A 
ATOM      4  C5  UNL     1      40.453  72.715 -10.108  0.00  0.00    +0.018 A 
ATOM      5  C21 UNL     1      40.698  74.087 -10.313  0.00  0.00    +0.041 A 
ATOM      6  C22 UNL     1      40.502  75.023  -9.275  0.00  0.00    +0.172 A 
ENDROOT
BRANCH   4   7
ATOM      7  C6  UNL     1      40.628  71.711 -11.202  0.00  0.00    +0.079 C 
ATOM      8  N1  UNL     1      40.879  72.136 -12.405  0.00  0.00    -0.172 NA
ATOM      9  N2  UNL     1      41.065  71.295 -13.521  0.00  0.00    -0.222 N 
ATOM     10  C14 UNL     1      41.263  70.005 -13.367  0.00  0.00    +0.253 C 
ATOM     11  O2  UNL     1      41.545  69.210 -14.483  0.00  0.00    -0.271 OA
ATOM     12  C15 UNL     1      41.273  69.393 -11.971  0.00  0.00    +0.091 C 
ATOM     13  C16 UNL     1      40.775  67.934 -11.942  0.00  0.00    +0.035 C 
ATOM     14  C17 UNL     1      39.352  67.880 -12.408  0.00  0.00    -0.030 C 
ATOM     15  C18 UNL     1      38.484  68.816 -12.003  0.00  0.00    -0.030 C 
ATOM     16  C19 UNL     1      38.881  69.890 -11.017  0.00  0.00    +0.032 C 
ATOM     17  C20 UNL     1      40.410  70.229 -10.982  0.00  0.00    +0.056 C 
BRANCH   9  18
ATOM     18  C7  UNL     1      41.102  71.954 -14.844  0.00  0.00    +0.108 C 
ATOM     19  C8  UNL     1      40.424  73.350 -14.792  0.00  0.00    +0.024 C 
ATOM     20  C9  UNL     1      39.753  73.730 -16.122  0.00  0.00    +0.002 C 
ATOM     21  C10 UNL     1      40.740  74.209 -17.191  0.00  0.00    +0.000 C 
ATOM     22  C11 UNL     1      41.795  73.160 -17.565  0.00  0.00    +0.000 C 
ATOM     23  C12 UNL     1      42.869  73.002 -16.476  0.00  0.00    +0.002 C 
ATOM     24  C13 UNL     1      42.542  71.929 -15.426  0.00  0.00    +0.024 C 
ENDBRANCH   9  18
ENDBRANCH   4   7
BRANCH   1  26
ATOM     25  C1  UNL     1      39.859  75.217  -5.602  0.00  0.00    +0.253 C 
ATOM     26  O1  UNL     1      39.937  75.530  -6.989  0.00  0.00    -0.468 OA
ENDBRANCH   1  26
BRANCH   6  27
ATOM     27  O3  UNL     1      40.700  76.402  -9.457  0.00  0.00    -0.472 OA
BRANCH  27  28
ATOM     28  C23 UNL     1      41.037  77.042 -10.688  0.00  0.00    +0.206 C 
BRANCH  28  29
ATOM     29  C24 UNL     1      42.555  77.080 -10.878  0.00  0.00    +0.051 C 
BRANCH  29  30
ATOM     30  C25 UNL     1      43.285  77.089  -9.529  0.00  0.00    +0.051 C 
BRANCH  30  31
ATOM     31  C26 UNL     1      44.136  75.833  -9.347  0.00  0.00    +0.206 C 
BRANCH  31  32
ATOM     32  O4  UNL     1      44.789  75.884  -8.079  0.00  0.00    -0.475 OA
BRANCH  32  33
ATOM     33  C27 UNL     1      44.774  74.854  -7.129  0.00  0.00    +0.139 A 
ATOM     34  C28 UNL     1      45.925  74.644  -6.367  0.00  0.00    +0.037 A 
ATOM     35  C29 UNL     1      45.979  73.611  -5.429  0.00  0.00    +0.006 A 
ATOM     36  C30 UNL     1      44.866  72.773  -5.220  0.00  0.00    +0.040 A 
ATOM     37  C32 UNL     1      43.697  73.004  -5.972  0.00  0.00    +0.006 A 
ATOM     38  C33 UNL     1      43.653  74.030  -6.922  0.00  0.00    +0.037 A 
BRANCH  36  39
ATOM     39  C31 UNL     1      44.929  71.666  -4.232  0.00  0.00    +0.208 A 
ATOM     40  N3  UNL     1      45.108  70.360  -4.530  0.00  0.00    -0.106 NA
ATOM     41  N4  UNL     1      45.125  69.726  -3.370  0.00  0.00    -0.021 NA
ATOM     42  N5  UNL     1      44.960  70.595  -2.388  0.00  0.00    -0.021 NA
ATOM     43  N6  UNL     1      44.838  71.810  -2.891  0.00  0.00    -0.106 NA
ENDBRANCH  36  39
ENDBRANCH  32  33
ENDBRANCH  31  32
ENDBRANCH  30  31
ENDBRANCH  29  30
ENDBRANCH  28  29
ENDBRANCH  27  28
ENDBRANCH   6  27
TORSDOF 11
ENDMDL
MODEL 7
REMARK VINA RESULT:      -7.6      2.780      9.132
REMARK  Name = ./data/4u7t_site2_bc02/pdb/l1c0.pdb
REMARK  11 active torsions:
REMARK  status: ('A' for Active; 'I' for Inactive)
REMARK    1  A    between atoms: O1_2  and  C2_3
REMARK    2  A    between atoms: C5_6  and  C6_7
REMARK    3  A    between atoms: N2_9  and  C7_10
REMARK    4  A    between atoms: C22_26  and  O3_27
REMARK    5  A    between atoms: O3_27  and  C23_28
REMARK    6  A    between atoms: C23_28  and  C24_29
REMARK    7  A    between atoms: C24_29  and  C25_30
REMARK    8  A    between atoms: C25_30  and  C26_31
REMARK    9  A    between atoms: C26_31  and  O4_32
REMARK   10  A    between atoms: O4_32  and  C27_33
REMARK   11  A    between atoms: C30_36  and  C31_37
REMARK                            x       y       z     vdW  Elec       q    Type
REMARK                         _______ _______ _______ _____ _____    ______ ____
ROOT
ATOM      1  C2  UNL     1      41.639  75.448  -8.490  0.00  0.00    +0.172 A 
ATOM      2  C3  UNL     1      42.765  76.114  -7.979  0.00  0.00    +0.040 A 
ATOM      3  C4  UNL     1      43.496  75.560  -6.928  0.00  0.00    +0.005 A 
ATOM      4  C5  UNL     1      43.130  74.325  -6.363  0.00  0.00    +0.018 A 
ATOM      5  C21 UNL     1      42.008  73.656  -6.889  0.00  0.00    +0.041 A 
ATOM      6  C22 UNL     1      41.248  74.221  -7.935  0.00  0.00    +0.172 A 
ENDROOT
BRANCH   4   7
ATOM      7  C6  UNL     1      43.932  73.756  -5.237  0.00  0.00    +0.079 C 
ATOM      8  N1  UNL     1      44.094  72.467  -5.176  0.00  0.00    -0.172 NA
ATOM      9  N2  UNL     1      44.827  71.807  -4.168  0.00  0.00    -0.222 N 
ATOM     10  C14 UNL     1      45.624  72.477  -3.366  0.00  0.00    +0.253 C 
ATOM     11  O2  UNL     1      46.414  71.786  -2.442  0.00  0.00    -0.271 OA
ATOM     12  C15 UNL     1      45.752  73.989  -3.502  0.00  0.00    +0.091 C 
ATOM     13  C16 UNL     1      46.058  74.697  -2.166  0.00  0.00    +0.035 C 
ATOM     14  C17 UNL     1      44.932  74.461  -1.205  0.00  0.00    -0.030 C 
ATOM     15  C18 UNL     1      43.666  74.519  -1.637  0.00  0.00    -0.030 C 
ATOM     16  C19 UNL     1      43.332  74.898  -3.061  0.00  0.00    +0.032 C 
ATOM     17  C20 UNL     1      44.462  74.613  -4.107  0.00  0.00    +0.056 C 
BRANCH   9  18
ATOM     18  C7  UNL     1      44.704  70.334  -4.123  0.00  0.00    +0.108 C 
ATOM     19  C8  UNL     1      45.886  69.652  -4.863  0.00  0.00    +0.024 C 
ATOM     20  C9  UNL     1      45.486  68.317  -5.511  0.00  0.00    +0.002 C 
ATOM     21  C10 UNL     1      45.391  67.157  -4.515  0.00  0.00    +0.000 C 
ATOM     22  C11 UNL     1      44.357  67.384  -3.405  0.00  0.00    +0.000 C 
ATOM     23  C12 UNL     1      44.844  68.398  -2.357  0.00  0.00    +0.002 C 
ATOM     24  C13 UNL     1      44.456  69.853  -2.667  0.00  0.00    +0.024 C 
ENDBRANCH   9  18
ENDBRANCH   4   7
BRANCH   1  26
ATOM     25  C1  UNL     1      40.993  75.557 -10.904  0.00  0.00    +0.253 C 
ATOM     26  O1  UNL     1      40.878  75.973  -9.547  0.00  0.00    -0.468 OA
ENDBRANCH   1  26
BRANCH   6  27
ATOM     27  O3  UNL     1      40.101  73.598  -8.456  0.00  0.00    -0.472 OA
BRANCH  27  28
ATOM     28  C23 UNL     1      40.057  72.309  -9.068  0.00  0.00    +0.206 C 
BRANCH  28  29
ATOM     29  C24 UNL     1      39.089  71.390  -8.318  0.00  0.00    +0.051 C 
BRANCH  29  30
ATOM     30  C25 UNL     1      39.201  69.943  -8.812  0.00  0.00    +0.051 C 
BRANCH  30  31
ATOM     31  C26 UNL     1      37.882  69.454  -9.410  0.00  0.00    +0.206 C 
BRANCH  31  32
ATOM     32  O4  UNL     1      38.119  68.940 -10.720  0.00  0.00    -0.475 OA
BRANCH  32  33
ATOM     33  C27 UNL     1      39.112  69.403 -11.594  0.00  0.00    +0.139 A 
ATOM     34  C28 UNL     1      38.877  70.592 -12.286  0.00  0.00    +0.037 A 
ATOM     35  C29 UNL     1      39.815  71.085 -13.195  0.00  0.00    +0.006 A 
ATOM     36  C30 UNL     1      41.026  70.400 -13.417  0.00  0.00    +0.040 A 
ATOM     37  C32 UNL     1      41.273  69.214 -12.697  0.00  0.00    +0.006 A 
ATOM     38  C33 UNL     1      40.322  68.716 -11.799  0.00  0.00    +0.037 A 
BRANCH  36  39
ATOM     39  C31 UNL     1      42.019  70.917 -14.394  0.00  0.00    +0.208 A 
ATOM     40  N3  UNL     1      42.259  72.222 -14.649  0.00  0.00    -0.106 NA
ATOM     41  N4  UNL     1      43.221  72.239 -15.556  0.00  0.00    -0.021 NA
ATOM     42  N5  UNL     1      43.567  70.999 -15.858  0.00  0.00    -0.021 NA
ATOM     43  N6  UNL     1      42.840  70.154 -15.151  0.00  0.00    -0.106 NA
ENDBRANCH  36  39
ENDBRANCH  32  33
ENDBRANCH  31  32
ENDBRANCH  30  31
ENDBRANCH  29  30
ENDBRANCH  28  29
ENDBRANCH  27  28
ENDBRANCH   6  27
TORSDOF 11
ENDMDL
MODEL 8
REMARK VINA RESULT:      -7.3      3.788      9.383
REMARK  Name = ./data/4u7t_site2_bc02/pdb/l1c0.pdb
REMARK  11 active torsions:
REMARK  status: ('A' for Active; 'I' for Inactive)
REMARK    1  A    between atoms: O1_2  and  C2_3
REMARK    2  A    between atoms: C5_6  and  C6_7
REMARK    3  A    between atoms: N2_9  and  C7_10
REMARK    4  A    between atoms: C22_26  and  O3_27
REMARK    5  A    between atoms: O3_27  and  C23_28
REMARK    6  A    between atoms: C23_28  and  C24_29
REMARK    7  A    between atoms: C24_29  and  C25_30
REMARK    8  A    between atoms: C25_30  and  C26_31
REMARK    9  A    between atoms: C26_31  and  O4_32
REMARK   10  A    between atoms: O4_32  and  C27_33
REMARK   11  A    between atoms: C30_36  and  C31_37
REMARK                            x       y       z     vdW  Elec       q    Type
REMARK                         _______ _______ _______ _____ _____    ______ ____
ROOT
ATOM      1  C2  UNL     1      44.247  76.121 -11.139  0.00  0.00    +0.172 A 
ATOM      2  C3  UNL     1      44.899  76.023  -9.900  0.00  0.00    +0.040 A 
ATOM      3  C4  UNL     1      44.163  75.962  -8.716  0.00  0.00    +0.005 A 
ATOM      4  C5  UNL     1      42.758  75.990  -8.737  0.00  0.00    +0.018 A 
ATOM      5  C21 UNL     1      42.108  76.075  -9.984  0.00  0.00    +0.041 A 
ATOM      6  C22 UNL     1      42.846  76.163 -11.183  0.00  0.00    +0.172 A 
ENDROOT
BRANCH   4   7
ATOM      7  C6  UNL     1      41.994  75.925  -7.452  0.00  0.00    +0.079 C 
ATOM      8  N1  UNL     1      42.643  76.059  -6.334  0.00  0.00    -0.172 NA
ATOM      9  N2  UNL     1      42.043  76.017  -5.059  0.00  0.00    -0.222 N 
ATOM     10  C14 UNL     1      40.738  76.106  -4.925  0.00  0.00    +0.253 C 
ATOM     11  O2  UNL     1      40.176  76.162  -3.646  0.00  0.00    -0.271 OA
ATOM     12  C15 UNL     1      39.850  76.235  -6.156  0.00  0.00    +0.091 C 
ATOM     13  C16 UNL     1      38.454  75.605  -5.969  0.00  0.00    +0.035 C 
ATOM     14  C17 UNL     1      38.598  74.135  -5.715  0.00  0.00    -0.030 C 
ATOM     15  C18 UNL     1      39.487  73.422  -6.418  0.00  0.00    -0.030 C 
ATOM     16  C19 UNL     1      40.301  74.046  -7.528  0.00  0.00    +0.032 C 
ATOM     17  C20 UNL     1      40.518  75.592  -7.405  0.00  0.00    +0.056 C 
BRANCH   9  18
ATOM     18  C7  UNL     1      42.960  75.948  -3.901  0.00  0.00    +0.108 C 
ATOM     19  C8  UNL     1      43.394  74.484  -3.619  0.00  0.00    +0.024 C 
ATOM     20  C9  UNL     1      43.655  74.223  -2.127  0.00  0.00    +0.002 C 
ATOM     21  C10 UNL     1      45.006  74.756  -1.639  0.00  0.00    +0.000 C 
ATOM     22  C11 UNL     1      45.164  76.273  -1.809  0.00  0.00    +0.000 C 
ATOM     23  C12 UNL     1      45.403  76.671  -3.275  0.00  0.00    +0.002 C 
ATOM     24  C13 UNL     1      44.116  76.972  -4.059  0.00  0.00    +0.024 C 
ENDBRANCH   9  18
ENDBRANCH   4   7
BRANCH   1  26
ATOM     25  C1  UNL     1      46.293  76.648 -12.477  0.00  0.00    +0.253 C 
ATOM     26  O1  UNL     1      44.953  76.184 -12.351  0.00  0.00    -0.468 OA
ENDBRANCH   1  26
BRANCH   6  27
ATOM     27  O3  UNL     1      42.230  76.287 -12.440  0.00  0.00    -0.472 OA
BRANCH  27  28
ATOM     28  C23 UNL     1      41.028  75.635 -12.849  0.00  0.00    +0.206 C 
BRANCH  28  29
ATOM     29  C24 UNL     1      41.262  74.824 -14.126  0.00  0.00    +0.051 C 
BRANCH  29  30
ATOM     30  C25 UNL     1      42.263  73.687 -13.889  0.00  0.00    +0.051 C 
BRANCH  30  31
ATOM     31  C26 UNL     1      42.077  72.559 -14.902  0.00  0.00    +0.206 C 
BRANCH  31  32
ATOM     32  O4  UNL     1      42.095  71.305 -14.223  0.00  0.00    -0.475 OA
BRANCH  32  33
ATOM     33  C27 UNL     1      41.088  70.846 -13.363  0.00  0.00    +0.139 A 
ATOM     34  C28 UNL     1      41.422  69.874 -12.417  0.00  0.00    +0.037 A 
ATOM     35  C29 UNL     1      40.454  69.355 -11.557  0.00  0.00    +0.006 A 
ATOM     36  C30 UNL     1      39.124  69.816 -11.613  0.00  0.00    +0.040 A 
ATOM     37  C32 UNL     1      38.795  70.815 -12.550  0.00  0.00    +0.006 A 
ATOM     38  C33 UNL     1      39.765  71.321 -13.421  0.00  0.00    +0.037 A 
BRANCH  36  39
ATOM     39  C31 UNL     1      38.090  69.253 -10.706  0.00  0.00    +0.208 A 
ATOM     40  N3  UNL     1      37.028  68.515 -11.094  0.00  0.00    -0.106 NA
ATOM     41  N4  UNL     1      36.383  68.202  -9.983  0.00  0.00    -0.021 NA
ATOM     42  N5  UNL     1      37.011  68.725  -8.945  0.00  0.00    -0.021 NA
ATOM     43  N6  UNL     1      38.078  69.382  -9.360  0.00  0.00    -0.106 NA
ENDBRANCH  36  39
ENDBRANCH  32  33
ENDBRANCH  31  32
ENDBRANCH  30  31
ENDBRANCH  29  30
ENDBRANCH  28  29
ENDBRANCH  27  28
ENDBRANCH   6  27
TORSDOF 11
ENDMDL
MODEL 9
REMARK VINA RESULT:      -7.1      1.835      3.910
REMARK  Name = ./data/4u7t_site2_bc02/pdb/l1c0.pdb
REMARK  11 active torsions:
REMARK  status: ('A' for Active; 'I' for Inactive)
REMARK    1  A    between atoms: O1_2  and  C2_3
REMARK    2  A    between atoms: C5_6  and  C6_7
REMARK    3  A    between atoms: N2_9  and  C7_10
REMARK    4  A    between atoms: C22_26  and  O3_27
REMARK    5  A    between atoms: O3_27  and  C23_28
REMARK    6  A    between atoms: C23_28  and  C24_29
REMARK    7  A    between atoms: C24_29  and  C25_30
REMARK    8  A    between atoms: C25_30  and  C26_31
REMARK    9  A    between atoms: C26_31  and  O4_32
REMARK   10  A    between atoms: O4_32  and  C27_33
REMARK   11  A    between atoms: C30_36  and  C31_37
REMARK                            x       y       z     vdW  Elec       q    Type
REMARK                         _______ _______ _______ _____ _____    ______ ____
ROOT
ATOM      1  C2  UNL     1      39.613  73.946  -6.369  0.00  0.00    +0.172 A 
ATOM      2  C3  UNL     1      38.771  72.881  -6.729  0.00  0.00    +0.040 A 
ATOM      3  C4  UNL     1      38.979  72.188  -7.921  0.00  0.00    +0.005 A 
ATOM      4  C5  UNL     1      40.035  72.532  -8.783  0.00  0.00    +0.018 A 
ATOM      5  C21 UNL     1      40.885  73.591  -8.410  0.00  0.00    +0.041 A 
ATOM      6  C22 UNL     1      40.666  74.314  -7.218  0.00  0.00    +0.172 A 
ENDROOT
BRANCH   4   7
ATOM      7  C6  UNL     1      40.234  71.771 -10.055  0.00  0.00    +0.079 C 
ATOM      8  N1  UNL     1      40.557  72.428 -11.130  0.00  0.00    -0.172 NA
ATOM      9  N2  UNL     1      40.772  71.832 -12.389  0.00  0.00    -0.222 N 
ATOM     10  C14 UNL     1      40.923  70.531 -12.501  0.00  0.00    +0.253 C 
ATOM     11  O2  UNL     1      41.236  69.975 -13.746  0.00  0.00    -0.271 OA
ATOM     12  C15 UNL     1      40.846  69.642 -11.266  0.00  0.00    +0.091 C 
ATOM     13  C16 UNL     1      40.305  68.229 -11.565  0.00  0.00    +0.035 C 
ATOM     14  C17 UNL     1      38.905  68.330 -12.091  0.00  0.00    -0.030 C 
ATOM     15  C18 UNL     1      38.047  69.194 -11.535  0.00  0.00    -0.030 C 
ATOM     16  C19 UNL     1      38.427  70.023 -10.329  0.00  0.00    +0.032 C 
ATOM     17  C20 UNL     1      39.961  70.286 -10.161  0.00  0.00    +0.056 C 
BRANCH   9  18
ATOM     18  C7  UNL     1      40.893  72.750 -13.542  0.00  0.00    +0.108 C 
ATOM     19  C8  UNL     1      39.668  72.624 -14.487  0.00  0.00    +0.024 C 
ATOM     20  C9  UNL     1      40.028  72.895 -15.957  0.00  0.00    +0.002 C 
ATOM     21  C10 UNL     1      40.176  74.383 -16.288  0.00  0.00    +0.000 C 
ATOM     22  C11 UNL     1      41.274  75.084 -15.476  0.00  0.00    +0.000 C 
ATOM     23  C12 UNL     1      40.851  75.330 -14.019  0.00  0.00    +0.002 C 
ATOM     24  C13 UNL     1      41.224  74.189 -13.059  0.00  0.00    +0.024 C 
ENDBRANCH   9  18
ENDBRANCH   4   7
BRANCH   1  26
ATOM     25  C1  UNL     1      38.168  74.975  -4.605  0.00  0.00    +0.253 C 
ATOM     26  O1  UNL     1      39.435  74.666  -5.177  0.00  0.00    -0.468 OA
ENDBRANCH   1  26
BRANCH   6  27
ATOM     27  O3  UNL     1      41.471  75.401  -6.836  0.00  0.00    -0.472 OA
BRANCH  27  28
ATOM     28  C23 UNL     1      42.846  75.580  -7.174  0.00  0.00    +0.206 C 
BRANCH  28  29
ATOM     29  C24 UNL     1      43.734  75.382  -5.943  0.00  0.00    +0.051 C 
BRANCH  29  30
ATOM     30  C25 UNL     1      42.906  75.390  -4.652  0.00  0.00    +0.051 C 
BRANCH  30  31
ATOM     31  C26 UNL     1      43.802  75.343  -3.415  0.00  0.00    +0.206 C 
BRANCH  31  32
ATOM     32  O4  UNL     1      44.831  74.375  -3.612  0.00  0.00    -0.475 OA
BRANCH  32  33
ATOM     33  C27 UNL     1      44.793  73.058  -3.133  0.00  0.00    +0.139 A 
ATOM     34  C28 UNL     1      45.257  72.040  -3.969  0.00  0.00    +0.037 A 
ATOM     35  C29 UNL     1      45.212  70.706  -3.559  0.00  0.00    +0.006 A 
ATOM     36  C30 UNL     1      44.715  70.364  -2.286  0.00  0.00    +0.040 A 
ATOM     37  C32 UNL     1      44.272  71.396  -1.434  0.00  0.00    +0.006 A 
ATOM     38  C33 UNL     1      44.304  72.729  -1.856  0.00  0.00    +0.037 A 
BRANCH  36  39
ATOM     39  C31 UNL     1      44.655  68.944  -1.854  0.00  0.00    +0.208 A 
ATOM     40  N3  UNL     1      45.715  68.191  -1.491  0.00  0.00    -0.106 NA
ATOM     41  N4  UNL     1      45.222  67.010  -1.162  0.00  0.00    -0.021 NA
ATOM     42  N5  UNL     1      43.909  67.020  -1.316  0.00  0.00    -0.021 NA
ATOM     43  N6  UNL     1      43.525  68.209  -1.742  0.00  0.00    -0.106 NA
ENDBRANCH  36  39
ENDBRANCH  32  33
ENDBRANCH  31  32
ENDBRANCH  30  31
ENDBRANCH  29  30
ENDBRANCH  28  29
ENDBRANCH  27  28
ENDBRANCH   6  27
TORSDOF 11
ENDMDL
