MODEL 1
REMARK VINA RESULT:      -9.8      0.000      0.000
REMARK  Name = ./data/4u7t_site2_bc02/pdb/l1c1.pdb
REMARK  11 active torsions:
REMARK  status: ('A' for Active; 'I' for Inactive)
REMARK    1  A    between atoms: O1_2  and  C2_3
REMARK    2  A    between atoms: C5_6  and  C6_7
REMARK    3  A    between atoms: N2_9  and  C7_10
REMARK    4  A    between atoms: C22_26  and  O3_27
REMARK    5  A    between atoms: O3_27  and  C23_28
REMARK    6  A    between atoms: C23_28  and  C24_29
REMARK    7  A    between atoms: C24_29  and  C25_30
REMARK    8  A    between atoms: C25_30  and  C26_31
REMARK    9  A    between atoms: C26_31  and  O4_32
REMARK   10  A    between atoms: O4_32  and  C27_33
REMARK   11  A    between atoms: C30_36  and  C31_37
REMARK                            x       y       z     vdW  Elec       q    Type
REMARK                         _______ _______ _______ _____ _____    ______ ____
ROOT
ATOM      1  C2  UNL     1      19.072  58.461  -5.894  0.00  0.00    +0.172 A 
ATOM      2  C3  UNL     1      19.455  59.808  -6.019  0.00  0.00    +0.040 A 
ATOM      3  C4  UNL     1      20.005  60.493  -4.935  0.00  0.00    +0.005 A 
ATOM      4  C5  UNL     1      20.202  59.849  -3.700  0.00  0.00    +0.018 A 
ATOM      5  C21 UNL     1      19.832  58.494  -3.586  0.00  0.00    +0.041 A 
ATOM      6  C22 UNL     1      19.253  57.803  -4.669  0.00  0.00    +0.172 A 
ENDROOT
BRANCH   4   7
ATOM      7  C6  UNL     1      20.771  60.567  -2.517  0.00  0.00    +0.079 C 
ATOM      8  N1  UNL     1      20.678  60.000  -1.353  0.00  0.00    -0.172 NA
ATOM      9  N2  UNL     1      21.117  60.563  -0.140  0.00  0.00    -0.222 N 
ATOM     10  C14 UNL     1      21.818  61.672  -0.115  0.00  0.00    +0.253 C 
ATOM     11  O2  UNL     1      22.332  62.141   1.098  0.00  0.00    -0.271 OA
ATOM     12  C15 UNL     1      22.147  62.432  -1.390  0.00  0.00    +0.091 C 
ATOM     13  C16 UNL     1      22.064  63.973  -1.130  0.00  0.00    +0.035 C 
ATOM     14  C17 UNL     1      21.683  64.772  -2.348  0.00  0.00    -0.030 C 
ATOM     15  C18 UNL     1      20.729  64.320  -3.166  0.00  0.00    -0.030 C 
ATOM     16  C19 UNL     1      20.152  62.956  -2.931  0.00  0.00    +0.032 C 
ATOM     17  C20 UNL     1      21.305  61.977  -2.628  0.00  0.00    +0.056 C 
BRANCH   9  18
ATOM     18  C7  UNL     1      20.798  59.790   1.083  0.00  0.00    +0.108 C 
ATOM     19  C8  UNL     1      20.320  60.731   2.212  0.00  0.00    +0.024 C 
ATOM     20  C9  UNL     1      20.423  60.110   3.612  0.00  0.00    +0.002 C 
ATOM     21  C10 UNL     1      19.607  58.818   3.773  0.00  0.00    +0.000 C 
ATOM     22  C11 UNL     1      20.297  57.606   3.123  0.00  0.00    +0.000 C 
ATOM     23  C12 UNL     1      19.966  57.395   1.633  0.00  0.00    +0.002 C 
ATOM     24  C13 UNL     1      19.775  58.666   0.785  0.00  0.00    +0.024 C 
ENDBRANCH   9  18
ENDBRANCH   4   7
BRANCH   1  26
ATOM     25  C1  UNL     1      17.927  58.338  -8.115  0.00  0.00    +0.253 C 
ATOM     26  O1  UNL     1      18.509  57.742  -6.961  0.00  0.00    -0.468 OA
ENDBRANCH   1  26
BRANCH   6  27
ATOM     27  O3  UNL     1      18.838  56.466  -4.565  0.00  0.00    -0.472 OA
BRANCH  27  28
ATOM     28  C23 UNL     1      19.338  55.533  -3.610  0.00  0.00    +0.206 C 
BRANCH  28  29
ATOM     29  C24 UNL     1      20.027  54.369  -4.323  0.00  0.00    +0.051 C 
BRANCH  29  30
ATOM     30  C25 UNL     1      19.877  54.481  -5.847  0.00  0.00    +0.051 C 
BRANCH  30  31
ATOM     31  C26 UNL     1      21.193  54.874  -6.517  0.00  0.00    +0.206 C 
BRANCH  31  32
ATOM     32  O4  UNL     1      21.044  54.885  -7.935  0.00  0.00    -0.475 OA
BRANCH  32  33
ATOM     33  C27 UNL     1      21.138  56.041  -8.727  0.00  0.00    +0.139 A 
ATOM     34  C28 UNL     1      20.843  56.037 -10.103  0.00  0.00    +0.037 A 
ATOM     35  C29 UNL     1      20.946  57.213 -10.851  0.00  0.00    +0.006 A 
ATOM     36  C30 UNL     1      21.339  58.420 -10.241  0.00  0.00    +0.040 A 
ATOM     37  C32 UNL     1      21.634  58.415  -8.865  0.00  0.00    +0.006 A 
ATOM     38  C33 UNL     1      21.538  57.235  -8.120  0.00  0.00    +0.037 A 
BRANCH  36  39
ATOM     39  C31 UNL     1      21.434  59.673 -11.037  0.00  0.00    +0.208 A 
ATOM     40  N3  UNL     1      20.936  60.873 -10.664  0.00  0.00    -0.106 NA
ATOM     41  N4  UNL     1      21.246  61.710 -11.640  0.00  0.00    -0.021 NA
ATOM     42  N5  UNL     1      21.908  61.064 -12.583  0.00  0.00    -0.021 NA
ATOM     43  N6  UNL     1      22.043  59.794 -12.238  0.00  0.00    -0.106 NA
ENDBRANCH  36  39
ENDBRANCH  32  33
ENDBRANCH  31  32
ENDBRANCH  30  31
ENDBRANCH  29  30
ENDBRANCH  28  29
ENDBRANCH  27  28
ENDBRANCH   6  27
TORSDOF 11
ENDMDL
MODEL 2
REMARK VINA RESULT:      -9.3      3.878      7.441
REMARK  Name = ./data/4u7t_site2_bc02/pdb/l1c1.pdb
REMARK  11 active torsions:
REMARK  status: ('A' for Active; 'I' for Inactive)
REMARK    1  A    between atoms: O1_2  and  C2_3
REMARK    2  A    between atoms: C5_6  and  C6_7
REMARK    3  A    between atoms: N2_9  and  C7_10
REMARK    4  A    between atoms: C22_26  and  O3_27
REMARK    5  A    between atoms: O3_27  and  C23_28
REMARK    6  A    between atoms: C23_28  and  C24_29
REMARK    7  A    between atoms: C24_29  and  C25_30
REMARK    8  A    between atoms: C25_30  and  C26_31
REMARK    9  A    between atoms: C26_31  and  O4_32
REMARK   10  A    between atoms: O4_32  and  C27_33
REMARK   11  A    between atoms: C30_36  and  C31_37
REMARK                            x       y       z     vdW  Elec       q    Type
REMARK                         _______ _______ _______ _____ _____    ______ ____
ROOT
ATOM      1  C2  UNL     1      20.954  60.472  -0.066  0.00  0.00    +0.172 A 
ATOM      2  C3  UNL     1      20.715  60.855   1.265  0.00  0.00    +0.040 A 
ATOM      3  C4  UNL     1      20.300  59.916   2.211  0.00  0.00    +0.005 A 
ATOM      4  C5  UNL     1      20.124  58.566   1.856  0.00  0.00    +0.018 A 
ATOM      5  C21 UNL     1      20.381  58.185   0.523  0.00  0.00    +0.041 A 
ATOM      6  C22 UNL     1      20.778  59.132  -0.441  0.00  0.00    +0.172 A 
ENDROOT
BRANCH   4   7
ATOM      7  C6  UNL     1      19.660  57.543   2.845  0.00  0.00    +0.079 C 
ATOM      8  N1  UNL     1      18.397  57.507   3.142  0.00  0.00    -0.172 NA
ATOM      9  N2  UNL     1      17.810  56.642   4.085  0.00  0.00    -0.222 N 
ATOM     10  C14 UNL     1      18.495  55.669   4.638  0.00  0.00    +0.253 C 
ATOM     11  O2  UNL     1      17.851  54.761   5.484  0.00  0.00    -0.271 OA
ATOM     12  C15 UNL     1      19.968  55.458   4.328  0.00  0.00    +0.091 C 
ATOM     13  C16 UNL     1      20.732  55.028   5.624  0.00  0.00    +0.035 C 
ATOM     14  C17 UNL     1      22.177  55.449   5.641  0.00  0.00    -0.030 C 
ATOM     15  C18 UNL     1      22.520  56.664   5.201  0.00  0.00    -0.030 C 
ATOM     16  C19 UNL     1      21.475  57.532   4.568  0.00  0.00    +0.032 C 
ATOM     17  C20 UNL     1      20.637  56.671   3.599  0.00  0.00    +0.056 C 
BRANCH   9  18
ATOM     18  C7  UNL     1      16.370  56.861   4.353  0.00  0.00    +0.108 C 
ATOM     19  C8  UNL     1      16.151  58.197   5.098  0.00  0.00    +0.024 C 
ATOM     20  C9  UNL     1      14.800  58.282   5.820  0.00  0.00    +0.002 C 
ATOM     21  C10 UNL     1      13.591  58.124   4.885  0.00  0.00    +0.000 C 
ATOM     22  C11 UNL     1      13.350  56.658   4.485  0.00  0.00    +0.000 C 
ATOM     23  C12 UNL     1      14.125  56.191   3.238  0.00  0.00    +0.002 C 
ATOM     24  C13 UNL     1      15.538  56.774   3.050  0.00  0.00    +0.024 C 
ENDBRANCH   9  18
ENDBRANCH   4   7
BRANCH   1  26
ATOM     25  C1  UNL     1      22.460  62.290  -0.896  0.00  0.00    +0.253 C 
ATOM     26  O1  UNL     1      21.367  61.391  -1.045  0.00  0.00    -0.468 OA
ENDBRANCH   1  26
BRANCH   6  27
ATOM     27  O3  UNL     1      20.998  58.784  -1.783  0.00  0.00    -0.472 OA
BRANCH  27  28
ATOM     28  C23 UNL     1      19.986  58.739  -2.786  0.00  0.00    +0.206 C 
BRANCH  28  29
ATOM     29  C24 UNL     1      20.218  57.546  -3.714  0.00  0.00    +0.051 C 
BRANCH  29  30
ATOM     30  C25 UNL     1      19.238  57.561  -4.897  0.00  0.00    +0.051 C 
BRANCH  30  31
ATOM     31  C26 UNL     1      19.948  57.873  -6.214  0.00  0.00    +0.206 C 
BRANCH  31  32
ATOM     32  O4  UNL     1      19.533  59.144  -6.711  0.00  0.00    -0.475 OA
BRANCH  32  33
ATOM     33  C27 UNL     1      19.547  60.327  -5.955  0.00  0.00    +0.139 A 
ATOM     34  C28 UNL     1      18.369  60.923  -5.465  0.00  0.00    +0.037 A 
ATOM     35  C29 UNL     1      18.432  62.098  -4.713  0.00  0.00    +0.006 A 
ATOM     36  C30 UNL     1      19.671  62.702  -4.426  0.00  0.00    +0.040 A 
ATOM     37  C32 UNL     1      20.844  62.102  -4.920  0.00  0.00    +0.006 A 
ATOM     38  C33 UNL     1      20.778  60.929  -5.680  0.00  0.00    +0.037 A 
BRANCH  36  39
ATOM     39  C31 UNL     1      19.736  63.945  -3.612  0.00  0.00    +0.208 A 
ATOM     40  N3  UNL     1      18.668  64.621  -3.133  0.00  0.00    -0.106 NA
ATOM     41  N4  UNL     1      19.163  65.646  -2.460  0.00  0.00    -0.021 NA
ATOM     42  N5  UNL     1      20.483  65.616  -2.514  0.00  0.00    -0.021 NA
ATOM     43  N6  UNL     1      20.872  64.569  -3.224  0.00  0.00    -0.106 NA
ENDBRANCH  36  39
ENDBRANCH  32  33
ENDBRANCH  31  32
ENDBRANCH  30  31
ENDBRANCH  29  30
ENDBRANCH  28  29
ENDBRANCH  27  28
ENDBRANCH   6  27
TORSDOF 11
ENDMDL
MODEL 3
REMARK VINA RESULT:      -9.1      3.342      6.587
REMARK  Name = ./data/4u7t_site2_bc02/pdb/l1c1.pdb
REMARK  11 active torsions:
REMARK  status: ('A' for Active; 'I' for Inactive)
REMARK    1  A    between atoms: O1_2  and  C2_3
REMARK    2  A    between atoms: C5_6  and  C6_7
REMARK    3  A    between atoms: N2_9  and  C7_10
REMARK    4  A    between atoms: C22_26  and  O3_27
REMARK    5  A    between atoms: O3_27  and  C23_28
REMARK    6  A    between atoms: C23_28  and  C24_29
REMARK    7  A    between atoms: C24_29  and  C25_30
REMARK    8  A    between atoms: C25_30  and  C26_31
REMARK    9  A    between atoms: C26_31  and  O4_32
REMARK   10  A    between atoms: O4_32  and  C27_33
REMARK   11  A    between atoms: C30_36  and  C31_37
REMARK                            x       y       z     vdW  Elec       q    Type
REMARK                         _______ _______ _______ _____ _____    ______ ____
ROOT
ATOM      1  C2  UNL     1      21.067  61.068   0.726  0.00  0.00    +0.172 A 
ATOM      2  C3  UNL     1      20.967  61.188   2.122  0.00  0.00    +0.040 A 
ATOM      3  C4  UNL     1      20.485  60.129   2.893  0.00  0.00    +0.005 A 
ATOM      4  C5  UNL     1      20.102  58.916   2.292  0.00  0.00    +0.018 A 
ATOM      5  C21 UNL     1      20.221  58.796   0.893  0.00  0.00    +0.041 A 
ATOM      6  C22 UNL     1      20.684  59.870   0.107  0.00  0.00    +0.172 A 
ENDROOT
BRANCH   4   7
ATOM      7  C6  UNL     1      19.563  57.773   3.093  0.00  0.00    +0.079 C 
ATOM      8  N1  UNL     1      18.306  57.787   3.413  0.00  0.00    -0.172 NA
ATOM      9  N2  UNL     1      17.658  56.817   4.201  0.00  0.00    -0.222 N 
ATOM     10  C14 UNL     1      18.263  55.706   4.550  0.00  0.00    +0.253 C 
ATOM     11  O2  UNL     1      17.552  54.716   5.236  0.00  0.00    -0.271 OA
ATOM     12  C15 UNL     1      19.708  55.434   4.167  0.00  0.00    +0.091 C 
ATOM     13  C16 UNL     1      20.447  54.714   5.342  0.00  0.00    +0.035 C 
ATOM     14  C17 UNL     1      21.924  55.004   5.396  0.00  0.00    -0.030 C 
ATOM     15  C18 UNL     1      22.365  56.245   5.173  0.00  0.00    -0.030 C 
ATOM     16  C19 UNL     1      21.391  57.298   4.735  0.00  0.00    +0.032 C 
ATOM     17  C20 UNL     1      20.471  56.700   3.651  0.00  0.00    +0.056 C 
BRANCH   9  18
ATOM     18  C7  UNL     1      16.246  57.102   4.543  0.00  0.00    +0.108 C 
ATOM     19  C8  UNL     1      16.129  58.438   5.311  0.00  0.00    +0.024 C 
ATOM     20  C9  UNL     1      14.822  58.580   6.101  0.00  0.00    +0.002 C 
ATOM     21  C10 UNL     1      13.561  58.491   5.226  0.00  0.00    +0.000 C 
ATOM     22  C11 UNL     1      13.229  57.044   4.826  0.00  0.00    +0.000 C 
ATOM     23  C12 UNL     1      13.917  56.554   3.537  0.00  0.00    +0.002 C 
ATOM     24  C13 UNL     1      15.346  57.070   3.283  0.00  0.00    +0.024 C 
ENDBRANCH   9  18
ENDBRANCH   4   7
BRANCH   1  26
ATOM     25  C1  UNL     1      22.780  62.787   0.116  0.00  0.00    +0.253 C 
ATOM     26  O1  UNL     1      21.541  62.115  -0.082  0.00  0.00    -0.468 OA
ENDBRANCH   1  26
BRANCH   6  27
ATOM     27  O3  UNL     1      20.770  59.788  -1.292  0.00  0.00    -0.472 OA
BRANCH  27  28
ATOM     28  C23 UNL     1      20.975  58.581  -2.023  0.00  0.00    +0.206 C 
BRANCH  28  29
ATOM     29  C24 UNL     1      19.886  58.418  -3.085  0.00  0.00    +0.051 C 
BRANCH  29  30
ATOM     30  C25 UNL     1      20.026  57.079  -3.825  0.00  0.00    +0.051 C 
BRANCH  30  31
ATOM     31  C26 UNL     1      19.199  57.056  -5.110  0.00  0.00    +0.206 C 
BRANCH  31  32
ATOM     32  O4  UNL     1      19.064  58.375  -5.636  0.00  0.00    -0.475 OA
BRANCH  32  33
ATOM     33  C27 UNL     1      19.586  58.786  -6.873  0.00  0.00    +0.139 A 
ATOM     34  C28 UNL     1      19.893  60.131  -7.152  0.00  0.00    +0.037 A 
ATOM     35  C29 UNL     1      20.416  60.492  -8.396  0.00  0.00    +0.006 A 
ATOM     36  C30 UNL     1      20.651  59.520  -9.387  0.00  0.00    +0.040 A 
ATOM     37  C32 UNL     1      20.340  58.178  -9.101  0.00  0.00    +0.006 A 
ATOM     38  C33 UNL     1      19.809  57.819  -7.858  0.00  0.00    +0.037 A 
BRANCH  36  39
ATOM     39  C31 UNL     1      21.222  59.906 -10.705  0.00  0.00    +0.208 A 
ATOM     40  N3  UNL     1      21.889  59.078 -11.539  0.00  0.00    -0.106 NA
ATOM     41  N4  UNL     1      22.208  59.810 -12.594  0.00  0.00    -0.021 NA
ATOM     42  N5  UNL     1      21.763  61.042 -12.428  0.00  0.00    -0.021 NA
ATOM     43  N6  UNL     1      21.143  61.136 -11.263  0.00  0.00    -0.106 NA
ENDBRANCH  36  39
ENDBRANCH  32  33
ENDBRANCH  31  32
ENDBRANCH  30  31
ENDBRANCH  29  30
ENDBRANCH  28  29
ENDBRANCH  27  28
ENDBRANCH   6  27
TORSDOF 11
ENDMDL
MODEL 4
REMARK VINA RESULT:      -8.9      4.880      8.395
REMARK  Name = ./data/4u7t_site2_bc02/pdb/l1c1.pdb
REMARK  11 active torsions:
REMARK  status: ('A' for Active; 'I' for Inactive)
REMARK    1  A    between atoms: O1_2  and  C2_3
REMARK    2  A    between atoms: C5_6  and  C6_7
REMARK    3  A    between atoms: N2_9  and  C7_10
REMARK    4  A    between atoms: C22_26  and  O3_27
REMARK    5  A    between atoms: O3_27  and  C23_28
REMARK    6  A    between atoms: C23_28  and  C24_29
REMARK    7  A    between atoms: C24_29  and  C25_30
REMARK    8  A    between atoms: C25_30  and  C26_31
REMARK    9  A    between atoms: C26_31  and  O4_32
REMARK   10  A    between atoms: O4_32  and  C27_33
REMARK   11  A    between atoms: C30_36  and  C31_37
REMARK                            x       y       z     vdW  Elec       q    Type
REMARK                         _______ _______ _______ _____ _____    ______ ____
ROOT
ATOM      1  C2  UNL     1      21.100  61.153   1.970  0.00  0.00    +0.172 A 
ATOM      2  C3  UNL     1      20.751  60.994   3.322  0.00  0.00    +0.040 A 
ATOM      3  C4  UNL     1      19.994  59.896   3.735  0.00  0.00    +0.005 A 
ATOM      4  C5  UNL     1      19.577  58.920   2.812  0.00  0.00    +0.018 A 
ATOM      5  C21 UNL     1      19.945  59.077   1.460  0.00  0.00    +0.041 A 
ATOM      6  C22 UNL     1      20.688  60.195   1.033  0.00  0.00    +0.172 A 
ENDROOT
BRANCH   4   7
ATOM      7  C6  UNL     1      18.748  57.745   3.225  0.00  0.00    +0.079 C 
ATOM      8  N1  UNL     1      19.058  57.133   4.326  0.00  0.00    -0.172 NA
ATOM      9  N2  UNL     1      18.411  55.987   4.827  0.00  0.00    -0.222 N 
ATOM     10  C14 UNL     1      17.310  55.530   4.279  0.00  0.00    +0.253 C 
ATOM     11  O2  UNL     1      16.634  54.458   4.870  0.00  0.00    -0.271 OA
ATOM     12  C15 UNL     1      16.706  56.182   3.046  0.00  0.00    +0.091 C 
ATOM     13  C16 UNL     1      16.132  55.087   2.087  0.00  0.00    +0.035 C 
ATOM     14  C17 UNL     1      16.156  55.483   0.634  0.00  0.00    -0.030 C 
ATOM     15  C18 UNL     1      17.221  56.120   0.137  0.00  0.00    -0.030 C 
ATOM     16  C19 UNL     1      18.314  56.551   1.069  0.00  0.00    +0.032 C 
ATOM     17  C20 UNL     1      17.674  57.179   2.324  0.00  0.00    +0.056 C 
BRANCH   9  18
ATOM     18  C7  UNL     1      19.012  55.384   6.039  0.00  0.00    +0.108 C 
ATOM     19  C8  UNL     1      20.527  55.152   5.838  0.00  0.00    +0.024 C 
ATOM     20  C9  UNL     1      21.125  54.130   6.813  0.00  0.00    +0.002 C 
ATOM     21  C10 UNL     1      20.955  54.516   8.291  0.00  0.00    +0.000 C 
ATOM     22  C11 UNL     1      19.528  54.254   8.802  0.00  0.00    +0.000 C 
ATOM     23  C12 UNL     1      18.540  55.418   8.590  0.00  0.00    +0.002 C 
ATOM     24  C13 UNL     1      18.711  56.236   7.297  0.00  0.00    +0.024 C 
ENDBRANCH   9  18
ENDBRANCH   4   7
BRANCH   1  26
ATOM     25  C1  UNL     1      23.267  62.366   1.655  0.00  0.00    +0.253 C 
ATOM     26  O1  UNL     1      21.855  62.248   1.518  0.00  0.00    -0.468 OA
ENDBRANCH   1  26
BRANCH   6  27
ATOM     27  O3  UNL     1      21.030  60.394  -0.314  0.00  0.00    -0.472 OA
BRANCH  27  28
ATOM     28  C23 UNL     1      21.393  59.355  -1.221  0.00  0.00    +0.206 C 
BRANCH  28  29
ATOM     29  C24 UNL     1      20.140  58.644  -1.735  0.00  0.00    +0.051 C 
BRANCH  29  30
ATOM     30  C25 UNL     1      20.337  58.140  -3.173  0.00  0.00    +0.051 C 
BRANCH  30  31
ATOM     31  C26 UNL     1      19.758  59.116  -4.196  0.00  0.00    +0.206 C 
BRANCH  31  32
ATOM     32  O4  UNL     1      20.593  60.266  -4.311  0.00  0.00    -0.475 OA
BRANCH  32  33
ATOM     33  C27 UNL     1      20.194  61.566  -3.961  0.00  0.00    +0.139 A 
ATOM     34  C28 UNL     1      20.986  62.407  -3.156  0.00  0.00    +0.037 A 
ATOM     35  C29 UNL     1      20.550  63.695  -2.838  0.00  0.00    +0.006 A 
ATOM     36  C30 UNL     1      19.319  64.177  -3.321  0.00  0.00    +0.040 A 
ATOM     37  C32 UNL     1      18.532  63.331  -4.124  0.00  0.00    +0.006 A 
ATOM     38  C33 UNL     1      18.967  62.038  -4.435  0.00  0.00    +0.037 A 
BRANCH  36  39
ATOM     39  C31 UNL     1      18.865  65.555  -2.993  0.00  0.00    +0.208 A 
ATOM     40  N3  UNL     1      19.655  66.547  -2.526  0.00  0.00    -0.106 NA
ATOM     41  N4  UNL     1      18.866  67.598  -2.382  0.00  0.00    -0.021 NA
ATOM     42  N5  UNL     1      17.635  67.280  -2.741  0.00  0.00    -0.021 NA
ATOM     43  N6  UNL     1      17.600  66.016  -3.127  0.00  0.00    -0.106 NA
ENDBRANCH  36  39
ENDBRANCH  32  33
ENDBRANCH  31  32
ENDBRANCH  30  31
ENDBRANCH  29  30
ENDBRANCH  28  29
ENDBRANCH  27  28
ENDBRANCH   6  27
TORSDOF 11
ENDMDL
MODEL 5
REMARK VINA RESULT:      -8.9      3.154      6.525
REMARK  Name = ./data/4u7t_site2_bc02/pdb/l1c1.pdb
REMARK  11 active torsions:
REMARK  status: ('A' for Active; 'I' for Inactive)
REMARK    1  A    between atoms: O1_2  and  C2_3
REMARK    2  A    between atoms: C5_6  and  C6_7
REMARK    3  A    between atoms: N2_9  and  C7_10
REMARK    4  A    between atoms: C22_26  and  O3_27
REMARK    5  A    between atoms: O3_27  and  C23_28
REMARK    6  A    between atoms: C23_28  and  C24_29
REMARK    7  A    between atoms: C24_29  and  C25_30
REMARK    8  A    between atoms: C25_30  and  C26_31
REMARK    9  A    between atoms: C26_31  and  O4_32
REMARK   10  A    between atoms: O4_32  and  C27_33
REMARK   11  A    between atoms: C30_36  and  C31_37
REMARK                            x       y       z     vdW  Elec       q    Type
REMARK                         _______ _______ _______ _____ _____    ______ ____
ROOT
ATOM      1  C2  UNL     1      21.437  61.438   1.571  0.00  0.00    +0.172 A 
ATOM      2  C3  UNL     1      20.920  61.242   2.864  0.00  0.00    +0.040 A 
ATOM      3  C4  UNL     1      20.023  60.204   3.120  0.00  0.00    +0.005 A 
ATOM      4  C5  UNL     1      19.627  59.324   2.095  0.00  0.00    +0.018 A 
ATOM      5  C21 UNL     1      20.162  59.516   0.805  0.00  0.00    +0.041 A 
ATOM      6  C22 UNL     1      21.049  60.577   0.535  0.00  0.00    +0.172 A 
ENDROOT
BRANCH   4   7
ATOM      7  C6  UNL     1      18.651  58.217   2.338  0.00  0.00    +0.079 C 
ATOM      8  N1  UNL     1      18.532  57.759   3.547  0.00  0.00    -0.172 NA
ATOM      9  N2  UNL     1      17.698  56.692   3.931  0.00  0.00    -0.222 N 
ATOM     10  C14 UNL     1      16.833  56.166   3.095  0.00  0.00    +0.253 C 
ATOM     11  O2  UNL     1      15.945  55.184   3.544  0.00  0.00    -0.271 OA
ATOM     12  C15 UNL     1      16.724  56.647   1.657  0.00  0.00    +0.091 C 
ATOM     13  C16 UNL     1      16.465  55.433   0.705  0.00  0.00    +0.035 C 
ATOM     14  C17 UNL     1      17.008  55.629  -0.685  0.00  0.00    -0.030 C 
ATOM     15  C18 UNL     1      18.208  56.191  -0.856  0.00  0.00    -0.030 C 
ATOM     16  C19 UNL     1      18.931  56.744   0.335  0.00  0.00    +0.032 C 
ATOM     17  C20 UNL     1      17.928  57.536   1.199  0.00  0.00    +0.056 C 
BRANCH   9  18
ATOM     18  C7  UNL     1      17.814  56.257   5.341  0.00  0.00    +0.108 C 
ATOM     19  C8  UNL     1      19.275  56.384   5.832  0.00  0.00    +0.024 C 
ATOM     20  C9  UNL     1      19.578  55.538   7.076  0.00  0.00    +0.002 C 
ATOM     21  C10 UNL     1      18.701  55.888   8.288  0.00  0.00    +0.000 C 
ATOM     22  C11 UNL     1      17.282  55.306   8.169  0.00  0.00    +0.000 C 
ATOM     23  C12 UNL     1      16.273  56.205   7.428  0.00  0.00    +0.002 C 
ATOM     24  C13 UNL     1      16.823  57.028   6.248  0.00  0.00    +0.024 C 
ENDBRANCH   9  18
ENDBRANCH   4   7
BRANCH   1  26
ATOM     25  C1  UNL     1      23.752  62.371   1.385  0.00  0.00    +0.253 C 
ATOM     26  O1  UNL     1      22.336  62.476   1.276  0.00  0.00    -0.468 OA
ENDBRANCH   1  26
BRANCH   6  27
ATOM     27  O3  UNL     1      21.561  60.813  -0.750  0.00  0.00    -0.472 OA
BRANCH  27  28
ATOM     28  C23 UNL     1      20.890  60.481  -1.964  0.00  0.00    +0.206 C 
BRANCH  28  29
ATOM     29  C24 UNL     1      20.815  58.962  -2.125  0.00  0.00    +0.051 C 
BRANCH  29  30
ATOM     30  C25 UNL     1      20.029  58.573  -3.386  0.00  0.00    +0.051 C 
BRANCH  30  31
ATOM     31  C26 UNL     1      19.597  59.803  -4.183  0.00  0.00    +0.206 C 
BRANCH  31  32
ATOM     32  O4  UNL     1      18.951  59.408  -5.392  0.00  0.00    -0.475 OA
BRANCH  32  33
ATOM     33  C27 UNL     1      19.503  59.582  -6.671  0.00  0.00    +0.139 A 
ATOM     34  C28 UNL     1      20.697  60.295  -6.887  0.00  0.00    +0.037 A 
ATOM     35  C29 UNL     1      21.211  60.438  -8.178  0.00  0.00    +0.006 A 
ATOM     36  C30 UNL     1      20.550  59.868  -9.282  0.00  0.00    +0.040 A 
ATOM     37  C32 UNL     1      19.356  59.158  -9.059  0.00  0.00    +0.006 A 
ATOM     38  C33 UNL     1      18.838  59.023  -7.766  0.00  0.00    +0.037 A 
BRANCH  36  39
ATOM     39  C31 UNL     1      21.108  60.009 -10.653  0.00  0.00    +0.208 A 
ATOM     40  N3  UNL     1      21.019  61.118 -11.422  0.00  0.00    -0.106 NA
ATOM     41  N4  UNL     1      21.651  60.828 -12.547  0.00  0.00    -0.021 NA
ATOM     42  N5  UNL     1      22.114  59.592 -12.488  0.00  0.00    -0.021 NA
ATOM     43  N6  UNL     1      21.794  59.055 -11.322  0.00  0.00    -0.106 NA
ENDBRANCH  36  39
ENDBRANCH  32  33
ENDBRANCH  31  32
ENDBRANCH  30  31
ENDBRANCH  29  30
ENDBRANCH  28  29
ENDBRANCH  27  28
ENDBRANCH   6  27
TORSDOF 11
ENDMDL
MODEL 6
REMARK VINA RESULT:      -8.9      2.704     10.991
REMARK  Name = ./data/4u7t_site2_bc02/pdb/l1c1.pdb
REMARK  11 active torsions:
REMARK  status: ('A' for Active; 'I' for Inactive)
REMARK    1  A    between atoms: O1_2  and  C2_3
REMARK    2  A    between atoms: C5_6  and  C6_7
REMARK    3  A    between atoms: N2_9  and  C7_10
REMARK    4  A    between atoms: C22_26  and  O3_27
REMARK    5  A    between atoms: O3_27  and  C23_28
REMARK    6  A    between atoms: C23_28  and  C24_29
REMARK    7  A    between atoms: C24_29  and  C25_30
REMARK    8  A    between atoms: C25_30  and  C26_31
REMARK    9  A    between atoms: C26_31  and  O4_32
REMARK   10  A    between atoms: O4_32  and  C27_33
REMARK   11  A    between atoms: C30_36  and  C31_37
REMARK                            x       y       z     vdW  Elec       q    Type
REMARK                         _______ _______ _______ _____ _____    ______ ____
ROOT
ATOM      1  C2  UNL     1      19.569  62.502  -3.499  0.00  0.00    +0.172 A 
ATOM      2  C3  UNL     1      18.722  62.218  -4.585  0.00  0.00    +0.040 A 
ATOM      3  C4  UNL     1      18.983  61.134  -5.423  0.00  0.00    +0.005 A 
ATOM      4  C5  UNL     1      20.088  60.294  -5.193  0.00  0.00    +0.018 A 
ATOM      5  C21 UNL     1      20.923  60.574  -4.092  0.00  0.00    +0.041 A 
ATOM      6  C22 UNL     1      20.679  61.682  -3.257  0.00  0.00    +0.172 A 
ENDROOT
BRANCH   4   7
ATOM      7  C6  UNL     1      20.402  59.137  -6.088  0.00  0.00    +0.079 C 
ATOM      8  N1  UNL     1      20.722  59.385  -7.321  0.00  0.00    -0.172 NA
ATOM      9  N2  UNL     1      20.996  58.411  -8.300  0.00  0.00    -0.222 N 
ATOM     10  C14 UNL     1      21.106  57.141  -7.987  0.00  0.00    +0.253 C 
ATOM     11  O2  UNL     1      21.489  56.217  -8.964  0.00  0.00    -0.271 OA
ATOM     12  C15 UNL     1      20.891  56.652  -6.564  0.00  0.00    +0.091 C 
ATOM     13  C16 UNL     1      20.142  55.278  -6.578  0.00  0.00    +0.035 C 
ATOM     14  C17 UNL     1      19.292  55.041  -5.358  0.00  0.00    -0.030 C 
ATOM     15  C18 UNL     1      18.561  56.040  -4.854  0.00  0.00    -0.030 C 
ATOM     16  C19 UNL     1      18.709  57.416  -5.431  0.00  0.00    +0.032 C 
ATOM     17  C20 UNL     1      20.210  57.709  -5.632  0.00  0.00    +0.056 C 
BRANCH   9  18
ATOM     18  C7  UNL     1      21.218  58.920  -9.672  0.00  0.00    +0.108 C 
ATOM     19  C8  UNL     1      20.919  60.435  -9.747  0.00  0.00    +0.024 C 
ATOM     20  C9  UNL     1      20.662  60.939 -11.173  0.00  0.00    +0.002 C 
ATOM     21  C10 UNL     1      21.839  60.699 -12.132  0.00  0.00    +0.000 C 
ATOM     22  C11 UNL     1      21.920  59.237 -12.603  0.00  0.00    +0.000 C 
ATOM     23  C12 UNL     1      22.736  58.306 -11.686  0.00  0.00    +0.002 C 
ATOM     24  C13 UNL     1      22.644  58.579 -10.173  0.00  0.00    +0.024 C 
ENDBRANCH   9  18
ENDBRANCH   4   7
BRANCH   1  26
ATOM     25  C1  UNL     1      18.591  64.748  -2.986  0.00  0.00    +0.253 C 
ATOM     26  O1  UNL     1      19.341  63.589  -2.639  0.00  0.00    -0.468 OA
ENDBRANCH   1  26
BRANCH   6  27
ATOM     27  O3  UNL     1      21.521  62.005  -2.181  0.00  0.00    -0.472 OA
BRANCH  27  28
ATOM     28  C23 UNL     1      21.902  61.099  -1.147  0.00  0.00    +0.206 C 
BRANCH  28  29
ATOM     29  C24 UNL     1      22.916  61.761  -0.214  0.00  0.00    +0.051 C 
BRANCH  29  30
ATOM     30  C25 UNL     1      22.244  62.809   0.686  0.00  0.00    +0.051 C 
BRANCH  30  31
ATOM     31  C26 UNL     1      22.450  62.497   2.167  0.00  0.00    +0.206 C 
BRANCH  31  32
ATOM     32  O4  UNL     1      21.215  62.119   2.770  0.00  0.00    -0.475 OA
BRANCH  32  33
ATOM     33  C27 UNL     1      20.809  60.789   2.967  0.00  0.00    +0.139 A 
ATOM     34  C28 UNL     1      21.010  60.112   4.185  0.00  0.00    +0.037 A 
ATOM     35  C29 UNL     1      20.584  58.790   4.336  0.00  0.00    +0.006 A 
ATOM     36  C30 UNL     1      19.944  58.116   3.280  0.00  0.00    +0.040 A 
ATOM     37  C32 UNL     1      19.749  58.798   2.064  0.00  0.00    +0.006 A 
ATOM     38  C33 UNL     1      20.182  60.119   1.912  0.00  0.00    +0.037 A 
BRANCH  36  39
ATOM     39  C31 UNL     1      19.479  56.713   3.449  0.00  0.00    +0.208 A 
ATOM     40  N3  UNL     1      18.234  56.343   3.823  0.00  0.00    -0.106 NA
ATOM     41  N4  UNL     1      18.241  55.021   3.838  0.00  0.00    -0.021 NA
ATOM     42  N5  UNL     1      19.436  54.580   3.489  0.00  0.00    -0.021 NA
ATOM     43  N6  UNL     1      20.231  55.608   3.240  0.00  0.00    -0.106 NA
ENDBRANCH  36  39
ENDBRANCH  32  33
ENDBRANCH  31  32
ENDBRANCH  30  31
ENDBRANCH  29  30
ENDBRANCH  28  29
ENDBRANCH  27  28
ENDBRANCH   6  27
TORSDOF 11
ENDMDL
MODEL 7
REMARK VINA RESULT:      -8.8      2.831     10.738
REMARK  Name = ./data/4u7t_site2_bc02/pdb/l1c1.pdb
REMARK  11 active torsions:
REMARK  status: ('A' for Active; 'I' for Inactive)
REMARK    1  A    between atoms: O1_2  and  C2_3
REMARK    2  A    between atoms: C5_6  and  C6_7
REMARK    3  A    between atoms: N2_9  and  C7_10
REMARK    4  A    between atoms: C22_26  and  O3_27
REMARK    5  A    between atoms: O3_27  and  C23_28
REMARK    6  A    between atoms: C23_28  and  C24_29
REMARK    7  A    between atoms: C24_29  and  C25_30
REMARK    8  A    between atoms: C25_30  and  C26_31
REMARK    9  A    between atoms: C26_31  and  O4_32
REMARK   10  A    between atoms: O4_32  and  C27_33
REMARK   11  A    between atoms: C30_36  and  C31_37
REMARK                            x       y       z     vdW  Elec       q    Type
REMARK                         _______ _______ _______ _____ _____    ______ ____
ROOT
ATOM      1  C2  UNL     1      20.302  59.262  -2.645  0.00  0.00    +0.172 A 
ATOM      2  C3  UNL     1      20.503  60.073  -3.776  0.00  0.00    +0.040 A 
ATOM      3  C4  UNL     1      20.417  59.534  -5.060  0.00  0.00    +0.005 A 
ATOM      4  C5  UNL     1      20.113  58.173  -5.252  0.00  0.00    +0.018 A 
ATOM      5  C21 UNL     1      19.897  57.369  -4.114  0.00  0.00    +0.041 A 
ATOM      6  C22 UNL     1      20.006  57.902  -2.814  0.00  0.00    +0.172 A 
ENDROOT
BRANCH   4   7
ATOM      7  C6  UNL     1      20.035  57.566  -6.616  0.00  0.00    +0.079 C 
ATOM      8  N1  UNL     1      20.417  58.281  -7.629  0.00  0.00    -0.172 NA
ATOM      9  N2  UNL     1      20.361  57.876  -8.976  0.00  0.00    -0.222 N 
ATOM     10  C14 UNL     1      20.054  56.644  -9.306  0.00  0.00    +0.253 C 
ATOM     11  O2  UNL     1      20.118  56.249 -10.646  0.00  0.00    -0.271 OA
ATOM     12  C15 UNL     1      19.694  55.606  -8.256  0.00  0.00    +0.091 C 
ATOM     13  C16 UNL     1      18.541  54.689  -8.783  0.00  0.00    +0.035 C 
ATOM     14  C17 UNL     1      17.661  54.138  -7.693  0.00  0.00    -0.030 C 
ATOM     15  C18 UNL     1      17.292  54.924  -6.676  0.00  0.00    -0.030 C 
ATOM     16  C19 UNL     1      17.877  56.300  -6.569  0.00  0.00    +0.032 C 
ATOM     17  C20 UNL     1      19.392  56.217  -6.846  0.00  0.00    +0.056 C 
BRANCH   9  18
ATOM     18  C7  UNL     1      20.735  58.903  -9.975  0.00  0.00    +0.108 C 
ATOM     19  C8  UNL     1      20.554  60.323  -9.391  0.00  0.00    +0.024 C 
ATOM     20  C9  UNL     1      20.456  61.418 -10.461  0.00  0.00    +0.002 C 
ATOM     21  C10 UNL     1      21.689  61.498 -11.374  0.00  0.00    +0.000 C 
ATOM     22  C11 UNL     1      21.703  60.384 -12.435  0.00  0.00    +0.000 C 
ATOM     23  C12 UNL     1      22.369  59.069 -11.984  0.00  0.00    +0.002 C 
ATOM     24  C13 UNL     1      22.169  58.669 -10.510  0.00  0.00    +0.024 C 
ENDBRANCH   9  18
ENDBRANCH   4   7
BRANCH   1  26
ATOM     25  C1  UNL     1      21.368  60.703  -0.899  0.00  0.00    +0.253 C 
ATOM     26  O1  UNL     1      20.388  59.770  -1.338  0.00  0.00    -0.468 OA
ENDBRANCH   1  26
BRANCH   6  27
ATOM     27  O3  UNL     1      19.837  57.112  -1.667  0.00  0.00    -0.472 OA
BRANCH  27  28
ATOM     28  C23 UNL     1      18.595  56.554  -1.242  0.00  0.00    +0.206 C 
BRANCH  28  29
ATOM     29  C24 UNL     1      18.470  55.112  -1.735  0.00  0.00    +0.051 C 
BRANCH  29  30
ATOM     30  C25 UNL     1      17.982  54.181  -0.615  0.00  0.00    +0.051 C 
BRANCH  30  31
ATOM     31  C26 UNL     1      16.616  54.608  -0.080  0.00  0.00    +0.206 C 
BRANCH  31  32
ATOM     32  O4  UNL     1      16.687  54.847   1.324  0.00  0.00    -0.475 OA
BRANCH  32  33
ATOM     33  C27 UNL     1      17.335  55.949   1.903  0.00  0.00    +0.139 A 
ATOM     34  C28 UNL     1      16.893  57.271   1.710  0.00  0.00    +0.037 A 
ATOM     35  C29 UNL     1      17.567  58.337   2.311  0.00  0.00    +0.006 A 
ATOM     36  C30 UNL     1      18.693  58.108   3.124  0.00  0.00    +0.040 A 
ATOM     37  C32 UNL     1      19.131  56.783   3.311  0.00  0.00    +0.006 A 
ATOM     38  C33 UNL     1      18.459  55.719   2.702  0.00  0.00    +0.037 A 
BRANCH  36  39
ATOM     39  C31 UNL     1      19.401  59.243   3.775  0.00  0.00    +0.208 A 
ATOM     40  N3  UNL     1      19.504  59.437   5.109  0.00  0.00    -0.106 NA
ATOM     41  N4  UNL     1      20.215  60.541   5.258  0.00  0.00    -0.021 NA
ATOM     42  N5  UNL     1      20.543  61.021   4.071  0.00  0.00    -0.021 NA
ATOM     43  N6  UNL     1      20.052  60.235   3.127  0.00  0.00    -0.106 NA
ENDBRANCH  36  39
ENDBRANCH  32  33
ENDBRANCH  31  32
ENDBRANCH  30  31
ENDBRANCH  29  30
ENDBRANCH  28  29
ENDBRANCH  27  28
ENDBRANCH   6  27
TORSDOF 11
ENDMDL
MODEL 8
REMARK VINA RESULT:      -8.8      3.798      8.382
REMARK  Name = ./data/4u7t_site2_bc02/pdb/l1c1.pdb
REMARK  11 active torsions:
REMARK  status: ('A' for Active; 'I' for Inactive)
REMARK    1  A    between atoms: O1_2  and  C2_3
REMARK    2  A    between atoms: C5_6  and  C6_7
REMARK    3  A    between atoms: N2_9  and  C7_10
REMARK    4  A    between atoms: C22_26  and  O3_27
REMARK    5  A    between atoms: O3_27  and  C23_28
REMARK    6  A    between atoms: C23_28  and  C24_29
REMARK    7  A    between atoms: C24_29  and  C25_30
REMARK    8  A    between atoms: C25_30  and  C26_31
REMARK    9  A    between atoms: C26_31  and  O4_32
REMARK   10  A    between atoms: O4_32  and  C27_33
REMARK   11  A    between atoms: C30_36  and  C31_37
REMARK                            x       y       z     vdW  Elec       q    Type
REMARK                         _______ _______ _______ _____ _____    ______ ____
ROOT
ATOM      1  C2  UNL     1      19.378  58.113  -5.713  0.00  0.00    +0.172 A 
ATOM      2  C3  UNL     1      19.882  59.412  -5.902  0.00  0.00    +0.040 A 
ATOM      3  C4  UNL     1      20.367  60.149  -4.820  0.00  0.00    +0.005 A 
ATOM      4  C5  UNL     1      20.374  59.605  -3.522  0.00  0.00    +0.018 A 
ATOM      5  C21 UNL     1      19.882  58.296  -3.343  0.00  0.00    +0.041 A 
ATOM      6  C22 UNL     1      19.370  57.556  -4.427  0.00  0.00    +0.172 A 
ENDROOT
BRANCH   4   7
ATOM      7  C6  UNL     1      20.868  60.381  -2.343  0.00  0.00    +0.079 C 
ATOM      8  N1  UNL     1      20.740  59.854  -1.164  0.00  0.00    -0.172 NA
ATOM      9  N2  UNL     1      21.107  60.473   0.045  0.00  0.00    -0.222 N 
ATOM     10  C14 UNL     1      21.775  61.602   0.059  0.00  0.00    +0.253 C 
ATOM     11  O2  UNL     1      22.221  62.130   1.275  0.00  0.00    -0.271 OA
ATOM     12  C15 UNL     1      22.139  62.326  -1.227  0.00  0.00    +0.091 C 
ATOM     13  C16 UNL     1      22.003  63.872  -1.029  0.00  0.00    +0.035 C 
ATOM     14  C17 UNL     1      21.654  64.614  -2.292  0.00  0.00    -0.030 C 
ATOM     15  C18 UNL     1      20.751  64.105  -3.134  0.00  0.00    -0.030 C 
ATOM     16  C19 UNL     1      20.202  62.734  -2.873  0.00  0.00    +0.032 C 
ATOM     17  C20 UNL     1      21.367  61.801  -2.484  0.00  0.00    +0.056 C 
BRANCH   9  18
ATOM     18  C7  UNL     1      20.755  59.736   1.280  0.00  0.00    +0.108 C 
ATOM     19  C8  UNL     1      20.166  60.696   2.339  0.00  0.00    +0.024 C 
ATOM     20  C9  UNL     1      20.217  60.139   3.767  0.00  0.00    +0.002 C 
ATOM     21  C10 UNL     1      19.457  58.814   3.939  0.00  0.00    +0.000 C 
ATOM     22  C11 UNL     1      20.244  57.614   3.383  0.00  0.00    +0.000 C 
ATOM     23  C12 UNL     1      20.011  57.325   1.887  0.00  0.00    +0.002 C 
ATOM     24  C13 UNL     1      19.808  58.549   0.975  0.00  0.00    +0.024 C 
ENDBRANCH   9  18
ENDBRANCH   4   7
BRANCH   1  26
ATOM     25  C1  UNL     1      17.761  57.714  -7.582  0.00  0.00    +0.253 C 
ATOM     26  O1  UNL     1      18.876  57.346  -6.778  0.00  0.00    -0.468 OA
ENDBRANCH   1  26
BRANCH   6  27
ATOM     27  O3  UNL     1      18.836  56.268  -4.265  0.00  0.00    -0.472 OA
BRANCH  27  28
ATOM     28  C23 UNL     1      19.605  55.100  -3.983  0.00  0.00    +0.206 C 
BRANCH  28  29
ATOM     29  C24 UNL     1      18.945  54.294  -2.863  0.00  0.00    +0.051 C 
BRANCH  29  30
ATOM     30  C25 UNL     1      17.742  55.044  -2.271  0.00  0.00    +0.051 C 
BRANCH  30  31
ATOM     31  C26 UNL     1      18.126  55.823  -1.014  0.00  0.00    +0.206 C 
BRANCH  31  32
ATOM     32  O4  UNL     1      16.992  56.512  -0.492  0.00  0.00    -0.475 OA
BRANCH  32  33
ATOM     33  C27 UNL     1      16.655  56.553   0.870  0.00  0.00    +0.139 A 
ATOM     34  C28 UNL     1      16.183  57.723   1.495  0.00  0.00    +0.037 A 
ATOM     35  C29 UNL     1      15.855  57.716   2.853  0.00  0.00    +0.006 A 
ATOM     36  C30 UNL     1      15.982  56.541   3.616  0.00  0.00    +0.040 A 
ATOM     37  C32 UNL     1      16.456  55.375   2.986  0.00  0.00    +0.006 A 
ATOM     38  C33 UNL     1      16.792  55.387   1.628  0.00  0.00    +0.037 A 
BRANCH  36  39
ATOM     39  C31 UNL     1      15.618  56.532   5.058  0.00  0.00    +0.208 A 
ATOM     40  N3  UNL     1      15.216  55.446   5.755  0.00  0.00    -0.106 NA
ATOM     41  N4  UNL     1      15.008  55.868   6.991  0.00  0.00    -0.021 NA
ATOM     42  N5  UNL     1      15.267  57.161   7.067  0.00  0.00    -0.021 NA
ATOM     43  N6  UNL     1      15.650  57.605   5.881  0.00  0.00    -0.106 NA
ENDBRANCH  36  39
ENDBRANCH  32  33
ENDBRANCH  31  32
ENDBRANCH  30  31
ENDBRANCH  29  30
ENDBRANCH  28  29
ENDBRANCH  27  28
ENDBRANCH   6  27
TORSDOF 11
ENDMDL
MODEL 9
REMARK VINA RESULT:      -8.7      3.141     11.433
REMARK  Name = ./data/4u7t_site2_bc02/pdb/l1c1.pdb
REMARK  11 active torsions:
REMARK  status: ('A' for Active; 'I' for Inactive)
REMARK    1  A    between atoms: O1_2  and  C2_3
REMARK    2  A    between atoms: C5_6  and  C6_7
REMARK    3  A    between atoms: N2_9  and  C7_10
REMARK    4  A    between atoms: C22_26  and  O3_27
REMARK    5  A    between atoms: O3_27  and  C23_28
REMARK    6  A    between atoms: C23_28  and  C24_29
REMARK    7  A    between atoms: C24_29  and  C25_30
REMARK    8  A    between atoms: C25_30  and  C26_31
REMARK    9  A    between atoms: C26_31  and  O4_32
REMARK   10  A    between atoms: O4_32  and  C27_33
REMARK   11  A    between atoms: C30_36  and  C31_37
REMARK                            x       y       z     vdW  Elec       q    Type
REMARK                         _______ _______ _______ _____ _____    ______ ____
ROOT
ATOM      1  C2  UNL     1      19.781  62.648  -3.546  0.00  0.00    +0.172 A 
ATOM      2  C3  UNL     1      18.956  62.419  -4.661  0.00  0.00    +0.040 A 
ATOM      3  C4  UNL     1      19.170  61.316  -5.488  0.00  0.00    +0.005 A 
ATOM      4  C5  UNL     1      20.206  60.402  -5.218  0.00  0.00    +0.018 A 
ATOM      5  C21 UNL     1      21.019  60.628  -4.089  0.00  0.00    +0.041 A 
ATOM      6  C22 UNL     1      20.823  61.753  -3.264  0.00  0.00    +0.172 A 
ENDROOT
BRANCH   4   7
ATOM      7  C6  UNL     1      20.470  59.223  -6.100  0.00  0.00    +0.079 C 
ATOM      8  N1  UNL     1      20.782  59.443  -7.340  0.00  0.00    -0.172 NA
ATOM      9  N2  UNL     1      21.012  58.447  -8.307  0.00  0.00    -0.222 N 
ATOM     10  C14 UNL     1      21.083  57.178  -7.978  0.00  0.00    +0.253 C 
ATOM     11  O2  UNL     1      21.423  56.229  -8.946  0.00  0.00    -0.271 OA
ATOM     12  C15 UNL     1      20.870  56.716  -6.546  0.00  0.00    +0.091 C 
ATOM     13  C16 UNL     1      20.076  55.368  -6.530  0.00  0.00    +0.035 C 
ATOM     14  C17 UNL     1      19.234  55.177  -5.297  0.00  0.00    -0.030 C 
ATOM     15  C18 UNL     1      18.543  56.206  -4.799  0.00  0.00    -0.030 C 
ATOM     16  C19 UNL     1      18.729  57.568  -5.397  0.00  0.00    +0.032 C 
ATOM     17  C20 UNL     1      20.236  57.808  -5.620  0.00  0.00    +0.056 C 
BRANCH   9  18
ATOM     18  C7  UNL     1      21.233  58.928  -9.690  0.00  0.00    +0.108 C 
ATOM     19  C8  UNL     1      20.844  60.419  -9.817  0.00  0.00    +0.024 C 
ATOM     20  C9  UNL     1      20.589  60.865 -11.262  0.00  0.00    +0.002 C 
ATOM     21  C10 UNL     1      21.800  60.671 -12.189  0.00  0.00    +0.000 C 
ATOM     22  C11 UNL     1      21.981  59.203 -12.614  0.00  0.00    +0.000 C 
ATOM     23  C12 UNL     1      22.831  58.351 -11.652  0.00  0.00    +0.002 C 
ATOM     24  C13 UNL     1      22.688  58.662 -10.150  0.00  0.00    +0.024 C 
ENDBRANCH   9  18
ENDBRANCH   4   7
BRANCH   1  26
ATOM     25  C1  UNL     1      18.569  64.722  -2.846  0.00  0.00    +0.253 C 
ATOM     26  O1  UNL     1      19.599  63.751  -2.696  0.00  0.00    -0.468 OA
ENDBRANCH   1  26
BRANCH   6  27
ATOM     27  O3  UNL     1      21.647  62.021  -2.159  0.00  0.00    -0.472 OA
BRANCH  27  28
ATOM     28  C23 UNL     1      22.107  61.040  -1.233  0.00  0.00    +0.206 C 
BRANCH  28  29
ATOM     29  C24 UNL     1      21.357  61.175   0.093  0.00  0.00    +0.051 C 
BRANCH  29  30
ATOM     30  C25 UNL     1      22.202  61.917   1.139  0.00  0.00    +0.051 C 
BRANCH  30  31
ATOM     31  C26 UNL     1      21.461  62.057   2.467  0.00  0.00    +0.206 C 
BRANCH  31  32
ATOM     32  O4  UNL     1      21.528  60.837   3.203  0.00  0.00    -0.475 OA
BRANCH  32  33
ATOM     33  C27 UNL     1      20.405  60.087   3.587  0.00  0.00    +0.139 A 
ATOM     34  C28 UNL     1      19.552  59.474   2.650  0.00  0.00    +0.037 A 
ATOM     35  C29 UNL     1      18.449  58.732   3.078  0.00  0.00    +0.006 A 
ATOM     36  C30 UNL     1      18.176  58.578   4.450  0.00  0.00    +0.040 A 
ATOM     37  C32 UNL     1      19.032  59.195   5.382  0.00  0.00    +0.006 A 
ATOM     38  C33 UNL     1      20.131  59.944   4.950  0.00  0.00    +0.037 A 
BRANCH  36  39
ATOM     39  C31 UNL     1      17.009  57.775   4.904  0.00  0.00    +0.208 A 
ATOM     40  N3  UNL     1      16.879  57.206   6.124  0.00  0.00    -0.106 NA
ATOM     41  N4  UNL     1      15.702  56.603   6.116  0.00  0.00    -0.021 NA
ATOM     42  N5  UNL     1      15.119  56.784   4.945  0.00  0.00    -0.021 NA
ATOM     43  N6  UNL     1      15.906  57.510   4.167  0.00  0.00    -0.106 NA
ENDBRANCH  36  39
ENDBRANCH  32  33
ENDBRANCH  31  32
ENDBRANCH  30  31
ENDBRANCH  29  30
ENDBRANCH  28  29
ENDBRANCH  27  28
ENDBRANCH   6  27
TORSDOF 11
ENDMDL
