MODEL 1
REMARK VINA RESULT:      -8.7      0.000      0.000
REMARK  Name = ./data/cofactor_redock/pdb/l1c0.pdb
REMARK  7 active torsions:
REMARK  status: ('A' for Active; 'I' for Inactive)
REMARK    1  A    between atoms: N5_10  and  C6_11
REMARK    2  A    between atoms: C7_13  and  C8_14
REMARK    3  A    between atoms: C8_14  and  S1_15
REMARK    4  A    between atoms: S1_15  and  C9_16
REMARK    5  A    between atoms: C9_16  and  C10_17
REMARK    6  A    between atoms: C10_17  and  C11_18
REMARK    7  A    between atoms: C11_18  and  C12_20
REMARK                            x       y       z     vdW  Elec       q    Type
REMARK                         _______ _______ _______ _____ _____    ______ ____
ROOT
ATOM      1  C6  UNL     1      19.324  59.463  -7.721  0.00  0.00    +0.241 C 
ATOM      2  O1  UNL     1      19.780  60.675  -7.152  0.00  0.00    -0.332 OA
ATOM      3  C7  UNL     1      19.792  60.525  -5.748  0.00  0.00    +0.161 C 
ATOM      4  C13 UNL     1      19.774  59.034  -5.424  0.00  0.00    +0.214 C 
ATOM      5  O4  UNL     1      19.117  58.785  -4.209  0.00  0.00    -0.218 OA
ATOM      6  C14 UNL     1      19.036  58.453  -6.606  0.00  0.00    +0.234 C 
ATOM      7  O5  UNL     1      17.651  58.334  -6.366  0.00  0.00    -0.216 OA
ENDROOT
BRANCH   1  17
ATOM      8  N1  UNL     1      23.156  58.104 -12.253  0.00  0.00    -0.105 NA
ATOM      9  C1  UNL     1      22.260  58.984 -11.576  0.00  0.00    +0.192 A 
ATOM     10  N2  UNL     1      21.958  60.209 -12.102  0.00  0.00    -0.204 NA
ATOM     11  C2  UNL     1      21.089  61.062 -11.472  0.00  0.00    +0.202 A 
ATOM     12  N3  UNL     1      20.499  60.705 -10.291  0.00  0.00    -0.205 NA
ATOM     13  C3  UNL     1      20.809  59.493  -9.764  0.00  0.00    +0.169 A 
ATOM     14  C4  UNL     1      21.657  58.632 -10.373  0.00  0.00    +0.152 A 
ATOM     15  N4  UNL     1      21.752  57.486  -9.674  0.00  0.00    -0.219 NA
ATOM     16  C5  UNL     1      20.921  57.707  -8.619  0.00  0.00    +0.182 A 
ATOM     17  N5  UNL     1      20.338  58.935  -8.638  0.00  0.00    -0.269 N 
ENDBRANCH   1  17
BRANCH   3  18
ATOM     18  C8  UNL     1      21.017  61.243  -5.169  0.00  0.00    +0.090 C 
BRANCH  18  19
ATOM     19  S1  UNL     1      20.594  62.115  -3.613  0.00  0.00    -0.138 S 
BRANCH  19  20
ATOM     20  C9  UNL     1      19.466  63.362  -4.338  0.00  0.00    +0.060 C 
BRANCH  20  21
ATOM     21  C10 UNL     1      18.956  64.359  -3.285  0.00  0.00    +0.042 C 
BRANCH  21  22
ATOM     22  C11 UNL     1      19.311  65.830  -3.608  0.00  0.00    +0.195 C 
ATOM     23  N6  UNL     1      20.694  66.127  -3.227  0.00  0.00    -0.121 NA
BRANCH  22  24
ATOM     24  C12 UNL     1      18.385  66.787  -2.912  0.00  0.00    +0.382 C 
ATOM     25  O2  UNL     1      18.839  67.650  -2.114  0.00  0.00    -0.244 OA
ATOM     26  O3  UNL     1      17.016  66.716  -3.138  0.00  0.00    -0.244 OA
ENDBRANCH  22  24
ENDBRANCH  21  22
ENDBRANCH  20  21
ENDBRANCH  19  20
ENDBRANCH  18  19
ENDBRANCH   3  18
TORSDOF 7
ENDMDL
MODEL 2
REMARK VINA RESULT:      -8.1      1.378      2.026
REMARK  Name = ./data/cofactor_redock/pdb/l1c0.pdb
REMARK  7 active torsions:
REMARK  status: ('A' for Active; 'I' for Inactive)
REMARK    1  A    between atoms: N5_10  and  C6_11
REMARK    2  A    between atoms: C7_13  and  C8_14
REMARK    3  A    between atoms: C8_14  and  S1_15
REMARK    4  A    between atoms: S1_15  and  C9_16
REMARK    5  A    between atoms: C9_16  and  C10_17
REMARK    6  A    between atoms: C10_17  and  C11_18
REMARK    7  A    between atoms: C11_18  and  C12_20
REMARK                            x       y       z     vdW  Elec       q    Type
REMARK                         _______ _______ _______ _____ _____    ______ ____
ROOT
ATOM      1  C6  UNL     1      18.857  58.548  -7.430  0.00  0.00    +0.241 C 
ATOM      2  O1  UNL     1      18.709  59.860  -6.923  0.00  0.00    -0.332 OA
ATOM      3  C7  UNL     1      18.991  59.832  -5.541  0.00  0.00    +0.161 C 
ATOM      4  C13 UNL     1      19.778  58.562  -5.236  0.00  0.00    +0.214 C 
ATOM      5  O4  UNL     1      19.516  58.098  -3.937  0.00  0.00    -0.218 OA
ATOM      6  C14 UNL     1      19.281  57.609  -6.297  0.00  0.00    +0.234 C 
ATOM      7  O5  UNL     1      18.199  56.825  -5.847  0.00  0.00    -0.216 OA
ENDROOT
BRANCH   1  17
ATOM      8  N1  UNL     1      22.783  57.383 -11.936  0.00  0.00    -0.105 NA
ATOM      9  C1  UNL     1      21.648  57.062 -11.134  0.00  0.00    +0.192 A 
ATOM     10  N2  UNL     1      20.979  55.883 -11.313  0.00  0.00    -0.204 NA
ATOM     11  C2  UNL     1      19.894  55.552 -10.544  0.00  0.00    +0.202 A 
ATOM     12  N3  UNL     1      19.450  56.403  -9.569  0.00  0.00    -0.205 NA
ATOM     13  C3  UNL     1      20.108  57.578  -9.399  0.00  0.00    +0.169 A 
ATOM     14  C4  UNL     1      21.186  57.920 -10.142  0.00  0.00    +0.152 A 
ATOM     15  N4  UNL     1      21.681  59.105  -9.741  0.00  0.00    -0.219 NA
ATOM     16  C5  UNL     1      20.844  59.453  -8.725  0.00  0.00    +0.182 A 
ATOM     17  N5  UNL     1      19.860  58.542  -8.499  0.00  0.00    -0.269 N 
ENDBRANCH   1  17
BRANCH   3  18
ATOM     18  C8  UNL     1      19.748  61.107  -5.149  0.00  0.00    +0.090 C 
BRANCH  18  19
ATOM     19  S1  UNL     1      18.586  62.486  -4.817  0.00  0.00    -0.138 S 
BRANCH  19  20
ATOM     20  C9  UNL     1      19.504  63.239  -3.421  0.00  0.00    +0.060 C 
BRANCH  20  21
ATOM     21  C10 UNL     1      18.755  64.440  -2.821  0.00  0.00    +0.042 C 
BRANCH  21  22
ATOM     22  C11 UNL     1      19.162  65.794  -3.449  0.00  0.00    +0.195 C 
ATOM     23  N6  UNL     1      20.575  66.083  -3.193  0.00  0.00    -0.121 NA
BRANCH  22  24
ATOM     24  C12 UNL     1      18.319  66.922  -2.923  0.00  0.00    +0.382 C 
ATOM     25  O2  UNL     1      18.809  67.771  -2.132  0.00  0.00    -0.244 OA
ATOM     26  O3  UNL     1      16.986  67.026  -3.300  0.00  0.00    -0.244 OA
ENDBRANCH  22  24
ENDBRANCH  21  22
ENDBRANCH  20  21
ENDBRANCH  19  20
ENDBRANCH  18  19
ENDBRANCH   3  18
TORSDOF 7
ENDMDL
MODEL 3
REMARK VINA RESULT:      -7.6      4.351      7.681
REMARK  Name = ./data/cofactor_redock/pdb/l1c0.pdb
REMARK  7 active torsions:
REMARK  status: ('A' for Active; 'I' for Inactive)
REMARK    1  A    between atoms: N5_10  and  C6_11
REMARK    2  A    between atoms: C7_13  and  C8_14
REMARK    3  A    between atoms: C8_14  and  S1_15
REMARK    4  A    between atoms: S1_15  and  C9_16
REMARK    5  A    between atoms: C9_16  and  C10_17
REMARK    6  A    between atoms: C10_17  and  C11_18
REMARK    7  A    between atoms: C11_18  and  C12_20
REMARK                            x       y       z     vdW  Elec       q    Type
REMARK                         _______ _______ _______ _____ _____    ______ ____
ROOT
ATOM      1  C6  UNL     1      18.988  57.849  -6.011  0.00  0.00    +0.241 C 
ATOM      2  O1  UNL     1      20.131  57.232  -6.572  0.00  0.00    -0.332 OA
ATOM      3  C7  UNL     1      19.901  57.054  -7.953  0.00  0.00    +0.161 C 
ATOM      4  C13 UNL     1      18.769  57.985  -8.377  0.00  0.00    +0.214 C 
ATOM      5  O4  UNL     1      18.032  57.441  -9.440  0.00  0.00    -0.218 OA
ATOM      6  C14 UNL     1      17.953  58.101  -7.112  0.00  0.00    +0.234 C 
ATOM      7  O5  UNL     1      16.908  57.155  -7.061  0.00  0.00    -0.216 OA
ENDROOT
BRANCH   1  17
ATOM      8  N1  UNL     1      20.633  62.453  -2.382  0.00  0.00    -0.105 NA
ATOM      9  C1  UNL     1      20.507  61.064  -2.685  0.00  0.00    +0.192 A 
ATOM     10  N2  UNL     1      20.874  60.117  -1.771  0.00  0.00    -0.204 NA
ATOM     11  C2  UNL     1      20.749  58.778  -2.039  0.00  0.00    +0.202 A 
ATOM     12  N3  UNL     1      20.250  58.356  -3.240  0.00  0.00    -0.205 NA
ATOM     13  C3  UNL     1      19.897  59.297  -4.151  0.00  0.00    +0.169 A 
ATOM     14  C4  UNL     1      20.004  60.623  -3.904  0.00  0.00    +0.152 A 
ATOM     15  N4  UNL     1      19.540  61.338  -4.945  0.00  0.00    -0.219 NA
ATOM     16  C5  UNL     1      19.153  60.375  -5.824  0.00  0.00    +0.182 A 
ATOM     17  N5  UNL     1      19.372  59.111  -5.372  0.00  0.00    -0.269 N 
ENDBRANCH   1  17
BRANCH   3  18
ATOM     18  C8  UNL     1      21.201  57.312  -8.724  0.00  0.00    +0.090 C 
BRANCH  18  19
ATOM     19  S1  UNL     1      21.128  56.577 -10.403  0.00  0.00    -0.138 S 
BRANCH  19  20
ATOM     20  C9  UNL     1      21.561  58.088 -11.343  0.00  0.00    +0.060 C 
BRANCH  20  21
ATOM     21  C10 UNL     1      22.111  59.197 -10.430  0.00  0.00    +0.042 C 
BRANCH  21  22
ATOM     22  C11 UNL     1      21.285  60.504 -10.485  0.00  0.00    +0.195 C 
ATOM     23  N6  UNL     1      19.851  60.211 -10.543  0.00  0.00    -0.121 NA
BRANCH  22  24
ATOM     24  C12 UNL     1      21.670  61.351 -11.665  0.00  0.00    +0.382 C 
ATOM     25  O2  UNL     1      22.481  62.306 -11.529  0.00  0.00    -0.244 OA
ATOM     26  O3  UNL     1      21.122  61.091 -12.915  0.00  0.00    -0.244 OA
ENDBRANCH  22  24
ENDBRANCH  21  22
ENDBRANCH  20  21
ENDBRANCH  19  20
ENDBRANCH  18  19
ENDBRANCH   3  18
TORSDOF 7
ENDMDL
MODEL 4
REMARK VINA RESULT:      -7.5      1.609      2.400
REMARK  Name = ./data/cofactor_redock/pdb/l1c0.pdb
REMARK  7 active torsions:
REMARK  status: ('A' for Active; 'I' for Inactive)
REMARK    1  A    between atoms: N5_10  and  C6_11
REMARK    2  A    between atoms: C7_13  and  C8_14
REMARK    3  A    between atoms: C8_14  and  S1_15
REMARK    4  A    between atoms: S1_15  and  C9_16
REMARK    5  A    between atoms: C9_16  and  C10_17
REMARK    6  A    between atoms: C10_17  and  C11_18
REMARK    7  A    between atoms: C11_18  and  C12_20
REMARK                            x       y       z     vdW  Elec       q    Type
REMARK                         _______ _______ _______ _____ _____    ______ ____
ROOT
ATOM      1  C6  UNL     1      19.073  57.852  -5.105  0.00  0.00    +0.241 C 
ATOM      2  O1  UNL     1      19.115  59.256  -4.943  0.00  0.00    -0.332 OA
ATOM      3  C7  UNL     1      19.653  59.537  -3.669  0.00  0.00    +0.161 C 
ATOM      4  C13 UNL     1      20.394  58.298  -3.176  0.00  0.00    +0.214 C 
ATOM      5  O4  UNL     1      20.353  58.203  -1.776  0.00  0.00    -0.218 OA
ATOM      6  C14 UNL     1      19.639  57.178  -3.851  0.00  0.00    +0.234 C 
ATOM      7  O5  UNL     1      18.610  56.661  -3.037  0.00  0.00    -0.216 OA
ENDROOT
BRANCH   1  17
ATOM      8  N1  UNL     1      21.766  57.153 -10.521  0.00  0.00    -0.105 NA
ATOM      9  C1  UNL     1      21.047  57.920  -9.555  0.00  0.00    +0.192 A 
ATOM     10  N2  UNL     1      20.630  59.189  -9.845  0.00  0.00    -0.204 NA
ATOM     11  C2  UNL     1      19.928  59.936  -8.935  0.00  0.00    +0.202 A 
ATOM     12  N3  UNL     1      19.626  59.423  -7.703  0.00  0.00    -0.205 NA
ATOM     13  C3  UNL     1      20.050  58.168  -7.413  0.00  0.00    +0.169 A 
ATOM     14  C4  UNL     1      20.737  57.411  -8.299  0.00  0.00    +0.152 A 
ATOM     15  N4  UNL     1      20.992  56.193  -7.786  0.00  0.00    -0.219 NA
ATOM     16  C5  UNL     1      20.426  56.263  -6.550  0.00  0.00    +0.182 A 
ATOM     17  N5  UNL     1      19.851  57.467  -6.286  0.00  0.00    -0.269 N 
ENDBRANCH   1  17
BRANCH   3  18
ATOM     18  C8  UNL     1      20.558  60.772  -3.758  0.00  0.00    +0.090 C 
BRANCH  18  19
ATOM     19  S1  UNL     1      19.846  62.030  -4.887  0.00  0.00    -0.138 S 
BRANCH  19  20
ATOM     20  C9  UNL     1      20.336  63.513  -3.931  0.00  0.00    +0.060 C 
BRANCH  20  21
ATOM     21  C10 UNL     1      19.119  64.350  -3.503  0.00  0.00    +0.042 C 
BRANCH  21  22
ATOM     22  C11 UNL     1      19.343  65.874  -3.642  0.00  0.00    +0.195 C 
ATOM     23  N6  UNL     1      20.663  66.256  -3.135  0.00  0.00    -0.121 NA
BRANCH  22  24
ATOM     24  C12 UNL     1      18.284  66.656  -2.917  0.00  0.00    +0.382 C 
ATOM     25  O2  UNL     1      17.071  66.328  -3.010  0.00  0.00    -0.244 OA
ATOM     26  O3  UNL     1      18.639  67.756  -2.146  0.00  0.00    -0.244 OA
ENDBRANCH  22  24
ENDBRANCH  21  22
ENDBRANCH  20  21
ENDBRANCH  19  20
ENDBRANCH  18  19
ENDBRANCH   3  18
TORSDOF 7
ENDMDL
MODEL 5
REMARK VINA RESULT:      -7.3      2.068      3.132
REMARK  Name = ./data/cofactor_redock/pdb/l1c0.pdb
REMARK  7 active torsions:
REMARK  status: ('A' for Active; 'I' for Inactive)
REMARK    1  A    between atoms: N5_10  and  C6_11
REMARK    2  A    between atoms: C7_13  and  C8_14
REMARK    3  A    between atoms: C8_14  and  S1_15
REMARK    4  A    between atoms: S1_15  and  C9_16
REMARK    5  A    between atoms: C9_16  and  C10_17
REMARK    6  A    between atoms: C10_17  and  C11_18
REMARK    7  A    between atoms: C11_18  and  C12_20
REMARK                            x       y       z     vdW  Elec       q    Type
REMARK                         _______ _______ _______ _____ _____    ______ ____
ROOT
ATOM      1  C6  UNL     1      19.132  59.124  -4.981  0.00  0.00    +0.241 C 
ATOM      2  O1  UNL     1      19.117  60.518  -4.742  0.00  0.00    -0.332 OA
ATOM      3  C7  UNL     1      19.882  60.775  -3.585  0.00  0.00    +0.161 C 
ATOM      4  C13 UNL     1      20.785  59.572  -3.328  0.00  0.00    +0.214 C 
ATOM      5  O4  UNL     1      21.033  59.404  -1.957  0.00  0.00    -0.218 OA
ATOM      6  C14 UNL     1      19.982  58.433  -3.910  0.00  0.00    +0.234 C 
ATOM      7  O5  UNL     1      19.174  57.800  -2.943  0.00  0.00    -0.216 OA
ENDROOT
BRANCH   1  17
ATOM      8  N1  UNL     1      21.689  56.978 -10.073  0.00  0.00    -0.105 NA
ATOM      9  C1  UNL     1      21.101  56.807  -8.784  0.00  0.00    +0.192 A 
ATOM     10  N2  UNL     1      21.012  55.566  -8.219  0.00  0.00    -0.204 NA
ATOM     11  C2  UNL     1      20.462  55.384  -6.977  0.00  0.00    +0.202 A 
ATOM     12  N3  UNL     1      19.984  56.451  -6.267  0.00  0.00    -0.205 NA
ATOM     13  C3  UNL     1      20.062  57.681  -6.834  0.00  0.00    +0.169 A 
ATOM     14  C4  UNL     1      20.609  57.884  -8.055  0.00  0.00    +0.152 A 
ATOM     15  N4  UNL     1      20.612  59.194  -8.362  0.00  0.00    -0.219 NA
ATOM     16  C5  UNL     1      20.039  59.761  -7.265  0.00  0.00    +0.182 A 
ATOM     17  N5  UNL     1      19.678  58.858  -6.315  0.00  0.00    -0.269 N 
ENDBRANCH   1  17
BRANCH   3  18
ATOM     18  C8  UNL     1      20.670  62.077  -3.773  0.00  0.00    +0.090 C 
BRANCH  18  19
ATOM     19  S1  UNL     1      21.228  62.747  -2.159  0.00  0.00    -0.138 S 
BRANCH  19  20
ATOM     20  C9  UNL     1      20.915  64.516  -2.515  0.00  0.00    +0.060 C 
BRANCH  20  21
ATOM     21  C10 UNL     1      19.474  64.761  -2.992  0.00  0.00    +0.042 C 
BRANCH  21  22
ATOM     22  C11 UNL     1      19.269  66.152  -3.638  0.00  0.00    +0.195 C 
ATOM     23  N6  UNL     1      20.534  66.888  -3.702  0.00  0.00    -0.121 NA
BRANCH  22  24
ATOM     24  C12 UNL     1      18.255  66.966  -2.886  0.00  0.00    +0.382 C 
ATOM     25  O2  UNL     1      18.621  67.781  -1.998  0.00  0.00    -0.244 OA
ATOM     26  O3  UNL     1      16.901  66.814  -3.160  0.00  0.00    -0.244 OA
ENDBRANCH  22  24
ENDBRANCH  21  22
ENDBRANCH  20  21
ENDBRANCH  19  20
ENDBRANCH  18  19
ENDBRANCH   3  18
TORSDOF 7
ENDMDL
MODEL 6
REMARK VINA RESULT:      -6.8      2.119      3.297
REMARK  Name = ./data/cofactor_redock/pdb/l1c0.pdb
REMARK  7 active torsions:
REMARK  status: ('A' for Active; 'I' for Inactive)
REMARK    1  A    between atoms: N5_10  and  C6_11
REMARK    2  A    between atoms: C7_13  and  C8_14
REMARK    3  A    between atoms: C8_14  and  S1_15
REMARK    4  A    between atoms: S1_15  and  C9_16
REMARK    5  A    between atoms: C9_16  and  C10_17
REMARK    6  A    between atoms: C10_17  and  C11_18
REMARK    7  A    between atoms: C11_18  and  C12_20
REMARK                            x       y       z     vdW  Elec       q    Type
REMARK                         _______ _______ _______ _____ _____    ______ ____
ROOT
ATOM      1  C6  UNL     1      19.547  59.665  -5.198  0.00  0.00    +0.241 C 
ATOM      2  O1  UNL     1      18.354  60.415  -5.071  0.00  0.00    -0.332 OA
ATOM      3  C7  UNL     1      18.594  61.474  -4.169  0.00  0.00    +0.161 C 
ATOM      4  C13 UNL     1      20.101  61.680  -4.059  0.00  0.00    +0.214 C 
ATOM      5  O4  UNL     1      20.460  62.154  -2.787  0.00  0.00    -0.218 OA
ATOM      6  C14 UNL     1      20.640  60.295  -4.328  0.00  0.00    +0.234 C 
ATOM      7  O5  UNL     1      20.839  59.559  -3.141  0.00  0.00    -0.216 OA
ENDROOT
BRANCH   1  17
ATOM      8  N1  UNL     1      21.541  58.431 -10.817  0.00  0.00    -0.105 NA
ATOM      9  C1  UNL     1      21.046  58.041  -9.536  0.00  0.00    +0.192 A 
ATOM     10  N2  UNL     1      20.918  56.719  -9.213  0.00  0.00    -0.204 NA
ATOM     11  C2  UNL     1      20.456  56.325  -7.983  0.00  0.00    +0.202 A 
ATOM     12  N3  UNL     1      20.110  57.256  -7.043  0.00  0.00    -0.205 NA
ATOM     13  C3  UNL     1      20.227  58.567  -7.369  0.00  0.00    +0.169 A 
ATOM     14  C4  UNL     1      20.688  58.978  -8.573  0.00  0.00    +0.152 A 
ATOM     15  N4  UNL     1      20.756  60.320  -8.623  0.00  0.00    -0.219 NA
ATOM     16  C5  UNL     1      20.311  60.690  -7.390  0.00  0.00    +0.182 A 
ATOM     17  N5  UNL     1      19.966  59.637  -6.602  0.00  0.00    -0.269 N 
ENDBRANCH   1  17
BRANCH   3  18
ATOM     18  C8  UNL     1      17.858  62.730  -4.650  0.00  0.00    +0.090 C 
BRANCH  18  19
ATOM     19  S1  UNL     1      16.489  63.168  -3.512  0.00  0.00    -0.138 S 
BRANCH  19  20
ATOM     20  C9  UNL     1      17.266  64.647  -2.763  0.00  0.00    +0.060 C 
BRANCH  20  21
ATOM     21  C10 UNL     1      18.507  65.105  -3.546  0.00  0.00    +0.042 C 
BRANCH  21  22
ATOM     22  C11 UNL     1      19.386  66.114  -2.770  0.00  0.00    +0.195 C 
ATOM     23  N6  UNL     1      18.603  67.284  -2.366  0.00  0.00    -0.121 NA
BRANCH  22  24
ATOM     24  C12 UNL     1      20.567  66.560  -3.587  0.00  0.00    +0.382 C 
ATOM     25  O2  UNL     1      21.646  65.911  -3.557  0.00  0.00    -0.244 OA
ATOM     26  O3  UNL     1      20.475  67.702  -4.373  0.00  0.00    -0.244 OA
ENDBRANCH  22  24
ENDBRANCH  21  22
ENDBRANCH  20  21
ENDBRANCH  19  20
ENDBRANCH  18  19
ENDBRANCH   3  18
TORSDOF 7
ENDMDL
MODEL 7
REMARK VINA RESULT:      -6.6      2.671      2.857
REMARK  Name = ./data/cofactor_redock/pdb/l1c0.pdb
REMARK  7 active torsions:
REMARK  status: ('A' for Active; 'I' for Inactive)
REMARK    1  A    between atoms: N5_10  and  C6_11
REMARK    2  A    between atoms: C7_13  and  C8_14
REMARK    3  A    between atoms: C8_14  and  S1_15
REMARK    4  A    between atoms: S1_15  and  C9_16
REMARK    5  A    between atoms: C9_16  and  C10_17
REMARK    6  A    between atoms: C10_17  and  C11_18
REMARK    7  A    between atoms: C11_18  and  C12_20
REMARK                            x       y       z     vdW  Elec       q    Type
REMARK                         _______ _______ _______ _____ _____    ______ ____
ROOT
ATOM      1  C6  UNL     1      18.889  58.534  -7.853  0.00  0.00    +0.241 C 
ATOM      2  O1  UNL     1      19.239  59.610  -7.005  0.00  0.00    -0.332 OA
ATOM      3  C7  UNL     1      19.174  59.158  -5.670  0.00  0.00    +0.161 C 
ATOM      4  C13 UNL     1      19.222  57.633  -5.676  0.00  0.00    +0.214 C 
ATOM      5  O4  UNL     1      18.508  57.095  -4.594  0.00  0.00    -0.218 OA
ATOM      6  C14 UNL     1      18.593  57.292  -7.005  0.00  0.00    +0.234 C 
ATOM      7  O5  UNL     1      17.206  57.064  -6.897  0.00  0.00    -0.216 OA
ENDROOT
BRANCH   1  17
ATOM      8  N1  UNL     1      23.085  58.384 -12.263  0.00  0.00    -0.105 NA
ATOM      9  C1  UNL     1      22.107  59.056 -11.470  0.00  0.00    +0.192 A 
ATOM     10  N2  UNL     1      21.791  60.363 -11.715  0.00  0.00    -0.204 NA
ATOM     11  C2  UNL     1      20.846  61.021 -10.972  0.00  0.00    +0.202 A 
ATOM     12  N3  UNL     1      20.190  60.379  -9.958  0.00  0.00    -0.205 NA
ATOM     13  C3  UNL     1      20.513  59.084  -9.709  0.00  0.00    +0.169 A 
ATOM     14  C4  UNL     1      21.437  58.414 -10.435  0.00  0.00    +0.152 A 
ATOM     15  N4  UNL     1      21.530  57.137 -10.020  0.00  0.00    -0.219 NA
ATOM     16  C5  UNL     1      20.619  57.081  -9.011  0.00  0.00    +0.182 A 
ATOM     17  N5  UNL     1      19.987  58.264  -8.786  0.00  0.00    -0.269 N 
ENDBRANCH   1  17
BRANCH   3  18
ATOM     18  C8  UNL     1      20.317  59.784  -4.862  0.00  0.00    +0.090 C 
BRANCH  18  19
ATOM     19  S1  UNL     1      20.449  59.015  -3.203  0.00  0.00    -0.138 S 
BRANCH  19  20
ATOM     20  C9  UNL     1      20.473  60.563  -2.224  0.00  0.00    +0.060 C 
BRANCH  20  21
ATOM     21  C10 UNL     1      21.564  61.532  -2.708  0.00  0.00    +0.042 C 
BRANCH  21  22
ATOM     22  C11 UNL     1      22.501  62.016  -1.575  0.00  0.00    +0.195 C 
ATOM     23  N6  UNL     1      22.398  61.141  -0.405  0.00  0.00    -0.121 NA
BRANCH  22  24
ATOM     24  C12 UNL     1      22.194  63.430  -1.171  0.00  0.00    +0.382 C 
ATOM     25  O2  UNL     1      22.320  63.793   0.029  0.00  0.00    -0.244 OA
ATOM     26  O3  UNL     1      21.757  64.345  -2.121  0.00  0.00    -0.244 OA
ENDBRANCH  22  24
ENDBRANCH  21  22
ENDBRANCH  20  21
ENDBRANCH  19  20
ENDBRANCH  18  19
ENDBRANCH   3  18
TORSDOF 7
ENDMDL
MODEL 8
REMARK VINA RESULT:      -6.4      3.270      3.947
REMARK  Name = ./data/cofactor_redock/pdb/l1c0.pdb
REMARK  7 active torsions:
REMARK  status: ('A' for Active; 'I' for Inactive)
REMARK    1  A    between atoms: N5_10  and  C6_11
REMARK    2  A    between atoms: C7_13  and  C8_14
REMARK    3  A    between atoms: C8_14  and  S1_15
REMARK    4  A    between atoms: S1_15  and  C9_16
REMARK    5  A    between atoms: C9_16  and  C10_17
REMARK    6  A    between atoms: C10_17  and  C11_18
REMARK    7  A    between atoms: C11_18  and  C12_20
REMARK                            x       y       z     vdW  Elec       q    Type
REMARK                         _______ _______ _______ _____ _____    ______ ____
ROOT
ATOM      1  C6  UNL     1      20.667  58.592  -7.827  0.00  0.00    +0.241 C 
ATOM      2  O1  UNL     1      20.749  58.014  -6.538  0.00  0.00    -0.332 OA
ATOM      3  C7  UNL     1      19.704  58.542  -5.751  0.00  0.00    +0.161 C 
ATOM      4  C13 UNL     1      18.650  59.131  -6.684  0.00  0.00    +0.214 C 
ATOM      5  O4  UNL     1      17.989  60.215  -6.086  0.00  0.00    -0.218 OA
ATOM      6  C14 UNL     1      19.472  59.549  -7.880  0.00  0.00    +0.234 C 
ATOM      7  O5  UNL     1      19.888  60.894  -7.799  0.00  0.00    -0.216 OA
ENDROOT
BRANCH   1  17
ATOM      8  N1  UNL     1      20.646  54.940 -12.699  0.00  0.00    -0.105 NA
ATOM      9  C1  UNL     1      21.152  56.042 -11.946  0.00  0.00    +0.192 A 
ATOM     10  N2  UNL     1      22.144  56.834 -12.454  0.00  0.00    -0.204 NA
ATOM     11  C2  UNL     1      22.634  57.904 -11.751  0.00  0.00    +0.202 A 
ATOM     12  N3  UNL     1      22.137  58.208 -10.513  0.00  0.00    -0.205 NA
ATOM     13  C3  UNL     1      21.160  57.414 -10.006  0.00  0.00    +0.169 A 
ATOM     14  C4  UNL     1      20.656  56.358 -10.686  0.00  0.00    +0.152 A 
ATOM     15  N4  UNL     1      19.667  55.772  -9.988  0.00  0.00    -0.219 NA
ATOM     16  C5  UNL     1      19.607  56.529  -8.858  0.00  0.00    +0.182 A 
ATOM     17  N5  UNL     1      20.520  57.536  -8.833  0.00  0.00    -0.269 N 
ENDBRANCH   1  17
BRANCH   3  18
ATOM     18  C8  UNL     1      19.142  57.440  -4.844  0.00  0.00    +0.090 C 
BRANCH  18  19
ATOM     19  S1  UNL     1      19.891  57.518  -3.172  0.00  0.00    -0.138 S 
BRANCH  19  20
ATOM     20  C9  UNL     1      20.468  59.255  -3.252  0.00  0.00    +0.060 C 
BRANCH  20  21
ATOM     21  C10 UNL     1      20.768  59.826  -1.857  0.00  0.00    +0.042 C 
BRANCH  21  22
ATOM     22  C11 UNL     1      20.867  61.370  -1.834  0.00  0.00    +0.195 C 
ATOM     23  N6  UNL     1      20.668  61.925  -3.175  0.00  0.00    -0.121 NA
BRANCH  22  24
ATOM     24  C12 UNL     1      22.192  61.831  -1.294  0.00  0.00    +0.382 C 
ATOM     25  O2  UNL     1      22.524  63.044  -1.365  0.00  0.00    -0.244 OA
ATOM     26  O3  UNL     1      23.065  60.914  -0.722  0.00  0.00    -0.244 OA
ENDBRANCH  22  24
ENDBRANCH  21  22
ENDBRANCH  20  21
ENDBRANCH  19  20
ENDBRANCH  18  19
ENDBRANCH   3  18
TORSDOF 7
ENDMDL
MODEL 9
REMARK VINA RESULT:      -6.4      4.481      7.989
REMARK  Name = ./data/cofactor_redock/pdb/l1c0.pdb
REMARK  7 active torsions:
REMARK  status: ('A' for Active; 'I' for Inactive)
REMARK    1  A    between atoms: N5_10  and  C6_11
REMARK    2  A    between atoms: C7_13  and  C8_14
REMARK    3  A    between atoms: C8_14  and  S1_15
REMARK    4  A    between atoms: S1_15  and  C9_16
REMARK    5  A    between atoms: C9_16  and  C10_17
REMARK    6  A    between atoms: C10_17  and  C11_18
REMARK    7  A    between atoms: C11_18  and  C12_20
REMARK                            x       y       z     vdW  Elec       q    Type
REMARK                         _______ _______ _______ _____ _____    ______ ____
ROOT
ATOM      1  C6  UNL     1      19.322  60.055  -6.642  0.00  0.00    +0.241 C 
ATOM      2  O1  UNL     1      18.487  58.941  -6.891  0.00  0.00    -0.332 OA
ATOM      3  C7  UNL     1      19.097  58.145  -7.883  0.00  0.00    +0.161 C 
ATOM      4  C13 UNL     1      20.576  58.514  -7.953  0.00  0.00    +0.214 C 
ATOM      5  O4  UNL     1      21.084  58.342  -9.250  0.00  0.00    -0.218 OA
ATOM      6  C14 UNL     1      20.571  59.962  -7.525  0.00  0.00    +0.234 C 
ATOM      7  O5  UNL     1      20.489  60.843  -8.624  0.00  0.00    -0.216 OA
ENDROOT
BRANCH   1  17
ATOM      8  N1  UNL     1      21.225  61.263  -0.986  0.00  0.00    -0.105 NA
ATOM      9  C1  UNL     1      20.794  61.660  -2.287  0.00  0.00    +0.192 A 
ATOM     10  N2  UNL     1      20.759  62.981  -2.635  0.00  0.00    -0.204 NA
ATOM     11  C2  UNL     1      20.360  63.381  -3.885  0.00  0.00    +0.202 A 
ATOM     12  N3  UNL     1      19.983  62.457  -4.820  0.00  0.00    -0.205 NA
ATOM     13  C3  UNL     1      20.007  61.147  -4.469  0.00  0.00    +0.169 A 
ATOM     14  C4  UNL     1      20.406  60.730  -3.245  0.00  0.00    +0.152 A 
ATOM     15  N4  UNL     1      20.387  59.387  -3.172  0.00  0.00    -0.219 NA
ATOM     16  C5  UNL     1      19.956  59.024  -4.411  0.00  0.00    +0.182 A 
ATOM     17  N5  UNL     1      19.701  60.081  -5.226  0.00  0.00    -0.269 N 
ENDBRANCH   1  17
BRANCH   3  18
ATOM     18  C8  UNL     1      18.871  56.663  -7.559  0.00  0.00    +0.090 C 
BRANCH  18  19
ATOM     19  S1  UNL     1      17.089  56.238  -7.635  0.00  0.00    -0.138 S 
BRANCH  19  20
ATOM     20  C9  UNL     1      17.220  54.542  -6.957  0.00  0.00    +0.060 C 
BRANCH  20  21
ATOM     21  C10 UNL     1      18.515  54.342  -6.154  0.00  0.00    +0.042 C 
BRANCH  21  22
ATOM     22  C11 UNL     1      18.286  54.274  -4.625  0.00  0.00    +0.195 C 
ATOM     23  N6  UNL     1      16.858  54.347  -4.309  0.00  0.00    -0.121 NA
BRANCH  22  24
ATOM     24  C12 UNL     1      19.014  55.376  -3.908  0.00  0.00    +0.382 C 
ATOM     25  O2  UNL     1      20.244  55.564  -4.106  0.00  0.00    -0.244 OA
ATOM     26  O3  UNL     1      18.333  56.189  -3.011  0.00  0.00    -0.244 OA
ENDBRANCH  22  24
ENDBRANCH  21  22
ENDBRANCH  20  21
ENDBRANCH  19  20
ENDBRANCH  18  19
ENDBRANCH   3  18
TORSDOF 7
ENDMDL
