MODEL 1
REMARK VINA RESULT:      -8.6      0.000      0.000
REMARK  Name = ./data/cofactor_redock/pdb/l0c0.pdb
REMARK  7 active torsions:
REMARK  status: ('A' for Active; 'I' for Inactive)
REMARK    1  A    between atoms: S1_2  and  C2_3
REMARK    2  A    between atoms: S1_2  and  C6_10
REMARK    3  A    between atoms: C2_3  and  C3_4
REMARK    4  A    between atoms: C3_4  and  C4_5
REMARK    5  A    between atoms: C4_5  and  C5_7
REMARK    6  A    between atoms: C6_10  and  C7_11
REMARK    7  A    between atoms: C8_13  and  N2_14
REMARK                            x       y       z     vdW  Elec       q    Type
REMARK                         _______ _______ _______ _____ _____    ______ ____
ROOT
ATOM      1  C7  UNL     1      19.304  59.674  -5.896  0.00  0.00    +0.160 C 
ATOM      2  O3  UNL     1      19.249  59.860  -7.296  0.00  0.00    -0.332 OA
ATOM      3  C8  UNL     1      18.991  58.611  -7.901  0.00  0.00    +0.241 C 
ATOM      4  C14 UNL     1      18.844  57.537  -6.818  0.00  0.00    +0.234 C 
ATOM      5  O4  UNL     1      17.489  57.207  -6.604  0.00  0.00    -0.216 OA
ATOM      6  C15 UNL     1      19.473  58.184  -5.607  0.00  0.00    +0.214 C 
ATOM      7  O5  UNL     1      18.823  57.809  -4.418  0.00  0.00    -0.218 OA
ENDROOT
BRANCH   3   8
ATOM      8  N2  UNL     1      20.085  58.276  -8.818  0.00  0.00    -0.269 N 
ATOM      9  C9  UNL     1      20.766  57.105  -8.923  0.00  0.00    +0.182 A 
ATOM     10  N3  UNL     1      21.674  57.097  -9.938  0.00  0.00    -0.219 NA
ATOM     11  C10 UNL     1      21.526  58.323 -10.477  0.00  0.00    +0.152 A 
ATOM     12  C11 UNL     1      22.172  58.889 -11.570  0.00  0.00    +0.192 A 
ATOM     13  N4  UNL     1      23.178  58.177 -12.295  0.00  0.00    -0.105 NA
ATOM     14  N5  UNL     1      21.807  60.158 -11.936  0.00  0.00    -0.204 NA
ATOM     15  C12 UNL     1      20.836  60.845 -11.248  0.00  0.00    +0.202 A 
ATOM     16  N6  UNL     1      20.206  60.275 -10.176  0.00  0.00    -0.205 NA
ATOM     17  C13 UNL     1      20.576  59.021  -9.817  0.00  0.00    +0.169 A 
ENDBRANCH   3   8
BRANCH   1  18
ATOM     18  C6  UNL     1      20.454  60.494  -5.301  0.00  0.00    +0.080 C 
BRANCH  18  20
ATOM     19  C1  UNL     1      21.105  61.614  -2.678  0.00  0.00    +0.059 C 
ATOM     20  S1  UNL     1      19.869  61.509  -3.952  0.00  0.00    -0.176 S 
BRANCH  20  21
ATOM     21  C2  UNL     1      19.405  63.148  -4.499  0.00  0.00    +0.050 C 
BRANCH  21  22
ATOM     22  C3  UNL     1      18.898  64.039  -3.351  0.00  0.00    +0.041 C 
BRANCH  22  23
ATOM     23  C4  UNL     1      19.385  65.505  -3.414  0.00  0.00    +0.195 C 
ATOM     24  N1  UNL     1      20.629  65.642  -2.654  0.00  0.00    -0.121 NA
BRANCH  23  25
ATOM     25  C5  UNL     1      18.346  66.469  -2.901  0.00  0.00    +0.382 C 
ATOM     26  O1  UNL     1      17.117  66.235  -3.061  0.00  0.00    -0.244 OA
ATOM     27  O2  UNL     1      18.743  67.614  -2.221  0.00  0.00    -0.244 OA
ENDBRANCH  23  25
ENDBRANCH  22  23
ENDBRANCH  21  22
ENDBRANCH  20  21
ENDBRANCH  18  20
ENDBRANCH   1  18
TORSDOF 7
ENDMDL
MODEL 2
REMARK VINA RESULT:      -8.6      2.646      8.508
REMARK  Name = ./data/cofactor_redock/pdb/l0c0.pdb
REMARK  7 active torsions:
REMARK  status: ('A' for Active; 'I' for Inactive)
REMARK    1  A    between atoms: S1_2  and  C2_3
REMARK    2  A    between atoms: S1_2  and  C6_10
REMARK    3  A    between atoms: C2_3  and  C3_4
REMARK    4  A    between atoms: C3_4  and  C4_5
REMARK    5  A    between atoms: C4_5  and  C5_7
REMARK    6  A    between atoms: C6_10  and  C7_11
REMARK    7  A    between atoms: C8_13  and  N2_14
REMARK                            x       y       z     vdW  Elec       q    Type
REMARK                         _______ _______ _______ _____ _____    ______ ____
ROOT
ATOM      1  C7  UNL     1      20.318  60.466  -5.096  0.00  0.00    +0.160 C 
ATOM      2  O3  UNL     1      20.431  61.868  -5.226  0.00  0.00    -0.332 OA
ATOM      3  C8  UNL     1      20.561  62.427  -3.936  0.00  0.00    +0.241 C 
ATOM      4  C14 UNL     1      20.554  61.307  -2.890  0.00  0.00    +0.234 C 
ATOM      5  O4  UNL     1      21.855  61.041  -2.416  0.00  0.00    -0.216 OA
ATOM      6  C15 UNL     1      19.972  60.136  -3.645  0.00  0.00    +0.214 C 
ATOM      7  O5  UNL     1      20.542  58.917  -3.240  0.00  0.00    -0.218 OA
ENDROOT
BRANCH   3   8
ATOM      8  N2  UNL     1      19.460  63.366  -3.697  0.00  0.00    -0.269 N 
ATOM      9  C9  UNL     1      18.159  63.084  -3.425  0.00  0.00    +0.182 A 
ATOM     10  N3  UNL     1      17.408  64.193  -3.174  0.00  0.00    -0.219 NA
ATOM     11  C10 UNL     1      18.305  65.191  -3.291  0.00  0.00    +0.152 A 
ATOM     12  C11 UNL     1      18.129  66.559  -3.117  0.00  0.00    +0.192 A 
ATOM     13  N4  UNL     1      16.852  67.113  -2.791  0.00  0.00    -0.105 NA
ATOM     14  N5  UNL     1      19.228  67.364  -3.266  0.00  0.00    -0.204 NA
ATOM     15  C12 UNL     1      20.459  66.837  -3.572  0.00  0.00    +0.202 A 
ATOM     16  N6  UNL     1      20.619  65.489  -3.737  0.00  0.00    -0.205 NA
ATOM     17  C13 UNL     1      19.527  64.699  -3.594  0.00  0.00    +0.169 A 
ENDBRANCH   3   8
BRANCH   1  18
ATOM     18  C6  UNL     1      19.254  59.932  -6.061  0.00  0.00    +0.080 C 
BRANCH  18  20
ATOM     19  C1  UNL     1      18.729  58.094  -8.276  0.00  0.00    +0.059 C 
ATOM     20  S1  UNL     1      19.988  58.817  -7.249  0.00  0.00    -0.176 S 
BRANCH  20  21
ATOM     21  C2  UNL     1      21.218  59.631  -8.261  0.00  0.00    +0.050 C 
BRANCH  21  22
ATOM     22  C3  UNL     1      20.599  60.486  -9.382  0.00  0.00    +0.041 C 
BRANCH  22  23
ATOM     23  C4  UNL     1      20.936  60.010 -10.813  0.00  0.00    +0.195 C 
ATOM     24  N1  UNL     1      22.031  59.038 -10.761  0.00  0.00    -0.121 NA
BRANCH  23  25
ATOM     25  C5  UNL     1      21.294  61.158 -11.722  0.00  0.00    +0.382 C 
ATOM     26  O1  UNL     1      21.772  62.225 -11.251  0.00  0.00    -0.244 OA
ATOM     27  O2  UNL     1      21.121  61.031 -13.095  0.00  0.00    -0.244 OA
ENDBRANCH  23  25
ENDBRANCH  22  23
ENDBRANCH  21  22
ENDBRANCH  20  21
ENDBRANCH  18  20
ENDBRANCH   1  18
TORSDOF 7
ENDMDL
MODEL 3
REMARK VINA RESULT:      -7.9      1.490      2.158
REMARK  Name = ./data/cofactor_redock/pdb/l0c0.pdb
REMARK  7 active torsions:
REMARK  status: ('A' for Active; 'I' for Inactive)
REMARK    1  A    between atoms: S1_2  and  C2_3
REMARK    2  A    between atoms: S1_2  and  C6_10
REMARK    3  A    between atoms: C2_3  and  C3_4
REMARK    4  A    between atoms: C3_4  and  C4_5
REMARK    5  A    between atoms: C4_5  and  C5_7
REMARK    6  A    between atoms: C6_10  and  C7_11
REMARK    7  A    between atoms: C8_13  and  N2_14
REMARK                            x       y       z     vdW  Elec       q    Type
REMARK                         _______ _______ _______ _____ _____    ______ ____
ROOT
ATOM      1  C7  UNL     1      19.117  60.032  -5.939  0.00  0.00    +0.160 C 
ATOM      2  O3  UNL     1      18.875  59.999  -7.331  0.00  0.00    -0.332 OA
ATOM      3  C8  UNL     1      18.956  58.657  -7.765  0.00  0.00    +0.241 C 
ATOM      4  C14 UNL     1      19.248  57.748  -6.567  0.00  0.00    +0.234 C 
ATOM      5  O4  UNL     1      18.086  57.069  -6.144  0.00  0.00    -0.216 OA
ATOM      6  C15 UNL     1      19.760  58.711  -5.522  0.00  0.00    +0.214 C 
ATOM      7  O5  UNL     1      19.372  58.331  -4.226  0.00  0.00    -0.218 OA
ENDROOT
BRANCH   3   8
ATOM      8  N2  UNL     1      20.008  58.534  -8.778  0.00  0.00    -0.269 N 
ATOM      9  C9  UNL     1      21.029  59.392  -9.039  0.00  0.00    +0.182 A 
ATOM     10  N3  UNL     1      21.884  58.938  -9.998  0.00  0.00    -0.219 NA
ATOM     11  C10 UNL     1      21.356  57.742 -10.324  0.00  0.00    +0.152 A 
ATOM     12  C11 UNL     1      21.811  56.796 -11.235  0.00  0.00    +0.192 A 
ATOM     13  N4  UNL     1      22.986  57.019 -12.020  0.00  0.00    -0.105 NA
ATOM     14  N5  UNL     1      21.097  55.633 -11.353  0.00  0.00    -0.204 NA
ATOM     15  C12 UNL     1      19.972  55.410 -10.596  0.00  0.00    +0.202 A 
ATOM     16  N6  UNL     1      19.536  56.348  -9.701  0.00  0.00    -0.205 NA
ATOM     17  C13 UNL     1      20.245  57.498  -9.593  0.00  0.00    +0.169 A 
ENDBRANCH   3   8
BRANCH   1  18
ATOM     18  C6  UNL     1      20.010  61.226  -5.588  0.00  0.00    +0.080 C 
BRANCH  18  20
ATOM     19  C1  UNL     1      20.723  61.541  -2.769  0.00  0.00    +0.059 C 
ATOM     20  S1  UNL     1      19.525  61.935  -4.022  0.00  0.00    -0.176 S 
BRANCH  20  21
ATOM     21  C2  UNL     1      19.304  63.707  -4.128  0.00  0.00    +0.050 C 
BRANCH  21  22
ATOM     22  C3  UNL     1      18.457  64.274  -2.975  0.00  0.00    +0.041 C 
BRANCH  22  23
ATOM     23  C4  UNL     1      18.717  65.766  -2.662  0.00  0.00    +0.195 C 
ATOM     24  N1  UNL     1      17.634  66.579  -3.222  0.00  0.00    -0.121 NA
BRANCH  23  25
ATOM     25  C5  UNL     1      20.051  66.231  -3.188  0.00  0.00    +0.382 C 
ATOM     26  O1  UNL     1      20.120  67.182  -4.014  0.00  0.00    -0.244 OA
ATOM     27  O2  UNL     1      21.218  65.624  -2.741  0.00  0.00    -0.244 OA
ENDBRANCH  23  25
ENDBRANCH  22  23
ENDBRANCH  21  22
ENDBRANCH  20  21
ENDBRANCH  18  20
ENDBRANCH   1  18
TORSDOF 7
ENDMDL
MODEL 4
REMARK VINA RESULT:      -7.8      2.935      8.505
REMARK  Name = ./data/cofactor_redock/pdb/l0c0.pdb
REMARK  7 active torsions:
REMARK  status: ('A' for Active; 'I' for Inactive)
REMARK    1  A    between atoms: S1_2  and  C2_3
REMARK    2  A    between atoms: S1_2  and  C6_10
REMARK    3  A    between atoms: C2_3  and  C3_4
REMARK    4  A    between atoms: C3_4  and  C4_5
REMARK    5  A    between atoms: C4_5  and  C5_7
REMARK    6  A    between atoms: C6_10  and  C7_11
REMARK    7  A    between atoms: C8_13  and  N2_14
REMARK                            x       y       z     vdW  Elec       q    Type
REMARK                         _______ _______ _______ _____ _____    ______ ____
ROOT
ATOM      1  C7  UNL     1      21.175  60.605  -2.754  0.00  0.00    +0.160 C 
ATOM      2  O3  UNL     1      20.918  61.634  -3.688  0.00  0.00    -0.332 OA
ATOM      3  C8  UNL     1      21.135  62.876  -3.052  0.00  0.00    +0.241 C 
ATOM      4  C14 UNL     1      21.588  62.639  -1.607  0.00  0.00    +0.234 C 
ATOM      5  O4  UNL     1      22.978  62.835  -1.468  0.00  0.00    -0.216 OA
ATOM      6  C15 UNL     1      21.183  61.207  -1.352  0.00  0.00    +0.214 C 
ATOM      7  O5  UNL     1      22.096  60.549  -0.509  0.00  0.00    -0.218 OA
ENDROOT
BRANCH   3   8
ATOM      8  N2  UNL     1      19.900  63.665  -3.086  0.00  0.00    -0.269 N 
ATOM      9  C9  UNL     1      18.625  63.241  -2.880  0.00  0.00    +0.182 A 
ATOM     10  N3  UNL     1      17.710  64.249  -2.903  0.00  0.00    -0.219 NA
ATOM     11  C10 UNL     1      18.474  65.337  -3.124  0.00  0.00    +0.152 A 
ATOM     12  C11 UNL     1      18.100  66.672  -3.221  0.00  0.00    +0.192 A 
ATOM     13  N4  UNL     1      16.731  67.074  -3.114  0.00  0.00    -0.105 NA
ATOM     14  N5  UNL     1      19.091  67.596  -3.420  0.00  0.00    -0.204 NA
ATOM     15  C12 UNL     1      20.408  67.217  -3.516  0.00  0.00    +0.202 A 
ATOM     16  N6  UNL     1      20.763  65.900  -3.416  0.00  0.00    -0.205 NA
ATOM     17  C13 UNL     1      19.777  64.991  -3.225  0.00  0.00    +0.169 A 
ENDBRANCH   3   8
BRANCH   1  18
ATOM     18  C6  UNL     1      20.119  59.501  -2.884  0.00  0.00    +0.080 C 
BRANCH  18  20
ATOM     19  C1  UNL     1      19.669  57.105  -4.501  0.00  0.00    +0.059 C 
ATOM     20  S1  UNL     1      20.118  58.825  -4.538  0.00  0.00    -0.176 S 
BRANCH  20  21
ATOM     21  C2  UNL     1      19.023  59.725  -5.629  0.00  0.00    +0.050 C 
BRANCH  21  22
ATOM     22  C3  UNL     1      19.678  60.075  -6.978  0.00  0.00    +0.041 C 
BRANCH  22  23
ATOM     23  C4  UNL     1      19.821  58.883  -7.951  0.00  0.00    +0.195 C 
ATOM     24  N1  UNL     1      21.240  58.616  -8.195  0.00  0.00    -0.121 NA
BRANCH  23  25
ATOM     25  C5  UNL     1      19.099  59.125  -9.252  0.00  0.00    +0.382 C 
ATOM     26  O1  UNL     1      17.983  58.584  -9.478  0.00  0.00    -0.244 OA
ATOM     27  O2  UNL     1      19.655  59.973 -10.202  0.00  0.00    -0.244 OA
ENDBRANCH  23  25
ENDBRANCH  22  23
ENDBRANCH  21  22
ENDBRANCH  20  21
ENDBRANCH  18  20
ENDBRANCH   1  18
TORSDOF 7
ENDMDL
MODEL 5
REMARK VINA RESULT:      -7.5      2.842      8.303
REMARK  Name = ./data/cofactor_redock/pdb/l0c0.pdb
REMARK  7 active torsions:
REMARK  status: ('A' for Active; 'I' for Inactive)
REMARK    1  A    between atoms: S1_2  and  C2_3
REMARK    2  A    between atoms: S1_2  and  C6_10
REMARK    3  A    between atoms: C2_3  and  C3_4
REMARK    4  A    between atoms: C3_4  and  C4_5
REMARK    5  A    between atoms: C4_5  and  C5_7
REMARK    6  A    between atoms: C6_10  and  C7_11
REMARK    7  A    between atoms: C8_13  and  N2_14
REMARK                            x       y       z     vdW  Elec       q    Type
REMARK                         _______ _______ _______ _____ _____    ______ ____
ROOT
ATOM      1  C7  UNL     1      19.588  59.605  -5.714  0.00  0.00    +0.160 C 
ATOM      2  O3  UNL     1      19.193  59.782  -4.369  0.00  0.00    -0.332 OA
ATOM      3  C8  UNL     1      19.546  61.090  -3.970  0.00  0.00    +0.241 C 
ATOM      4  C14 UNL     1      20.197  61.826  -5.146  0.00  0.00    +0.234 C 
ATOM      5  O4  UNL     1      19.298  62.735  -5.743  0.00  0.00    -0.216 OA
ATOM      6  C15 UNL     1      20.581  60.705  -6.081  0.00  0.00    +0.214 C 
ATOM      7  O5  UNL     1      20.460  61.084  -7.429  0.00  0.00    -0.218 OA
ENDROOT
BRANCH   3   8
ATOM      8  N2  UNL     1      20.464  61.023  -2.829  0.00  0.00    -0.269 N 
ATOM      9  C9  UNL     1      20.966  59.917  -2.218  0.00  0.00    +0.182 A 
ATOM     10  N3  UNL     1      21.861  60.205  -1.232  0.00  0.00    -0.219 NA
ATOM     11  C10 UNL     1      21.907  61.551  -1.258  0.00  0.00    +0.152 A 
ATOM     12  C11 UNL     1      22.673  62.422  -0.491  0.00  0.00    +0.192 A 
ATOM     13  N4  UNL     1      23.560  61.942   0.524  0.00  0.00    -0.105 NA
ATOM     14  N5  UNL     1      22.554  63.763  -0.744  0.00  0.00    -0.204 NA
ATOM     15  C12 UNL     1      21.709  64.230  -1.722  0.00  0.00    +0.202 A 
ATOM     16  N6  UNL     1      20.963  63.362  -2.471  0.00  0.00    -0.205 NA
ATOM     17  C13 UNL     1      21.083  62.038  -2.212  0.00  0.00    +0.169 A 
ENDBRANCH   3   8
BRANCH   1  18
ATOM     18  C6  UNL     1      20.198  58.212  -5.904  0.00  0.00    +0.080 C 
BRANCH  18  20
ATOM     19  C1  UNL     1      18.192  58.397  -8.025  0.00  0.00    +0.059 C 
ATOM     20  S1  UNL     1      19.521  57.423  -7.356  0.00  0.00    -0.176 S 
BRANCH  20  21
ATOM     21  C2  UNL     1      20.767  57.139  -8.607  0.00  0.00    +0.050 C 
BRANCH  21  22
ATOM     22  C3  UNL     1      21.539  58.417  -8.983  0.00  0.00    +0.041 C 
BRANCH  22  23
ATOM     23  C4  UNL     1      21.552  58.738 -10.495  0.00  0.00    +0.195 C 
ATOM     24  N1  UNL     1      22.930  58.713 -10.990  0.00  0.00    -0.121 NA
BRANCH  23  25
ATOM     25  C5  UNL     1      20.908  60.067 -10.796  0.00  0.00    +0.382 C 
ATOM     26  O1  UNL     1      19.727  60.308 -10.426  0.00  0.00    -0.244 OA
ATOM     27  O2  UNL     1      21.631  61.048 -11.465  0.00  0.00    -0.244 OA
ENDBRANCH  23  25
ENDBRANCH  22  23
ENDBRANCH  21  22
ENDBRANCH  20  21
ENDBRANCH  18  20
ENDBRANCH   1  18
TORSDOF 7
ENDMDL
MODEL 6
REMARK VINA RESULT:      -7.5      4.201      7.302
REMARK  Name = ./data/cofactor_redock/pdb/l0c0.pdb
REMARK  7 active torsions:
REMARK  status: ('A' for Active; 'I' for Inactive)
REMARK    1  A    between atoms: S1_2  and  C2_3
REMARK    2  A    between atoms: S1_2  and  C6_10
REMARK    3  A    between atoms: C2_3  and  C3_4
REMARK    4  A    between atoms: C3_4  and  C4_5
REMARK    5  A    between atoms: C4_5  and  C5_7
REMARK    6  A    between atoms: C6_10  and  C7_11
REMARK    7  A    between atoms: C8_13  and  N2_14
REMARK                            x       y       z     vdW  Elec       q    Type
REMARK                         _______ _______ _______ _____ _____    ______ ____
ROOT
ATOM      1  C7  UNL     1      19.456  55.702  -8.211  0.00  0.00    +0.160 C 
ATOM      2  O3  UNL     1      20.436  56.341  -7.419  0.00  0.00    -0.332 OA
ATOM      3  C8  UNL     1      19.815  56.823  -6.246  0.00  0.00    +0.241 C 
ATOM      4  C14 UNL     1      18.328  56.453  -6.264  0.00  0.00    +0.234 C 
ATOM      5  O4  UNL     1      18.062  55.358  -5.415  0.00  0.00    -0.216 OA
ATOM      6  C15 UNL     1      18.075  56.124  -7.716  0.00  0.00    +0.214 C 
ATOM      7  O5  UNL     1      17.133  55.091  -7.861  0.00  0.00    -0.218 OA
ENDROOT
BRANCH   3   8
ATOM      8  N2  UNL     1      19.986  58.277  -6.165  0.00  0.00    -0.269 N 
ATOM      9  C9  UNL     1      19.946  59.186  -7.174  0.00  0.00    +0.182 A 
ATOM     10  N3  UNL     1      20.063  60.474  -6.746  0.00  0.00    -0.219 NA
ATOM     11  C10 UNL     1      20.170  60.333  -5.411  0.00  0.00    +0.152 A 
ATOM     12  C11 UNL     1      20.290  61.309  -4.428  0.00  0.00    +0.192 A 
ATOM     13  N4  UNL     1      20.344  62.700  -4.758  0.00  0.00    -0.105 NA
ATOM     14  N5  UNL     1      20.349  60.893  -3.124  0.00  0.00    -0.204 NA
ATOM     15  C12 UNL     1      20.290  59.559  -2.799  0.00  0.00    +0.202 A 
ATOM     16  N6  UNL     1      20.170  58.609  -3.776  0.00  0.00    -0.205 NA
ATOM     17  C13 UNL     1      20.117  59.027  -5.064  0.00  0.00    +0.169 A 
ENDBRANCH   3   8
BRANCH   1  18
ATOM     18  C6  UNL     1      19.657  56.062  -9.688  0.00  0.00    +0.080 C 
BRANCH  18  20
ATOM     19  C1  UNL     1      22.285  55.196 -10.636  0.00  0.00    +0.059 C 
ATOM     20  S1  UNL     1      21.346  56.560  -9.988  0.00  0.00    -0.176 S 
BRANCH  20  21
ATOM     21  C2  UNL     1      21.445  57.959 -11.099  0.00  0.00    +0.050 C 
BRANCH  21  22
ATOM     22  C3  UNL     1      22.130  59.181 -10.461  0.00  0.00    +0.041 C 
BRANCH  22  23
ATOM     23  C4  UNL     1      21.298  60.482 -10.512  0.00  0.00    +0.195 C 
ATOM     24  N1  UNL     1      19.870  60.152 -10.501  0.00  0.00    -0.121 NA
BRANCH  23  25
ATOM     25  C5  UNL     1      21.634  61.322 -11.718  0.00  0.00    +0.382 C 
ATOM     26  O1  UNL     1      21.134  61.058 -12.845  0.00  0.00    -0.244 OA
ATOM     27  O2  UNL     1      22.483  62.414 -11.583  0.00  0.00    -0.244 OA
ENDBRANCH  23  25
ENDBRANCH  22  23
ENDBRANCH  21  22
ENDBRANCH  20  21
ENDBRANCH  18  20
ENDBRANCH   1  18
TORSDOF 7
ENDMDL
MODEL 7
REMARK VINA RESULT:      -7.4      3.945      7.774
REMARK  Name = ./data/cofactor_redock/pdb/l0c0.pdb
REMARK  7 active torsions:
REMARK  status: ('A' for Active; 'I' for Inactive)
REMARK    1  A    between atoms: S1_2  and  C2_3
REMARK    2  A    between atoms: S1_2  and  C6_10
REMARK    3  A    between atoms: C2_3  and  C3_4
REMARK    4  A    between atoms: C3_4  and  C4_5
REMARK    5  A    between atoms: C4_5  and  C5_7
REMARK    6  A    between atoms: C6_10  and  C7_11
REMARK    7  A    between atoms: C8_13  and  N2_14
REMARK                            x       y       z     vdW  Elec       q    Type
REMARK                         _______ _______ _______ _____ _____    ______ ____
ROOT
ATOM      1  C7  UNL     1      19.937  57.570  -7.670  0.00  0.00    +0.160 C 
ATOM      2  O3  UNL     1      20.059  57.538  -6.263  0.00  0.00    -0.332 OA
ATOM      3  C8  UNL     1      19.097  58.414  -5.713  0.00  0.00    +0.241 C 
ATOM      4  C14 UNL     1      18.275  59.046  -6.842  0.00  0.00    +0.234 C 
ATOM      5  O4  UNL     1      17.005  58.442  -6.949  0.00  0.00    -0.216 OA
ATOM      6  C15 UNL     1      19.128  58.803  -8.064  0.00  0.00    +0.214 C 
ATOM      7  O5  UNL     1      18.346  58.568  -9.208  0.00  0.00    -0.218 OA
ENDROOT
BRANCH   3   8
ATOM      8  N2  UNL     1      19.773  59.448  -4.924  0.00  0.00    -0.269 N 
ATOM      9  C9  UNL     1      20.044  60.733  -5.276  0.00  0.00    +0.182 A 
ATOM     10  N3  UNL     1      20.616  61.458  -4.275  0.00  0.00    -0.219 NA
ATOM     11  C10 UNL     1      20.684  60.568  -3.266  0.00  0.00    +0.152 A 
ATOM     12  C11 UNL     1      21.154  60.739  -1.968  0.00  0.00    +0.192 A 
ATOM     13  N4  UNL     1      21.693  61.989  -1.528  0.00  0.00    -0.105 NA
ATOM     14  N5  UNL     1      21.080  59.667  -1.120  0.00  0.00    -0.204 NA
ATOM     15  C12 UNL     1      20.557  58.466  -1.534  0.00  0.00    +0.202 A 
ATOM     16  N6  UNL     1      20.095  58.312  -2.813  0.00  0.00    -0.205 NA
ATOM     17  C13 UNL     1      20.176  59.375  -3.648  0.00  0.00    +0.169 A 
ENDBRANCH   3   8
BRANCH   1  18
ATOM     18  C6  UNL     1      21.326  57.579  -8.318  0.00  0.00    +0.080 C 
BRANCH  18  20
ATOM     19  C1  UNL     1      19.781  55.722  -9.967  0.00  0.00    +0.059 C 
ATOM     20  S1  UNL     1      21.353  56.527  -9.761  0.00  0.00    -0.176 S 
BRANCH  20  21
ATOM     21  C2  UNL     1      21.781  57.432 -11.243  0.00  0.00    +0.050 C 
BRANCH  21  22
ATOM     22  C3  UNL     1      22.180  58.892 -10.958  0.00  0.00    +0.041 C 
BRANCH  22  23
ATOM     23  C4  UNL     1      21.261  59.947 -11.616  0.00  0.00    +0.195 C 
ATOM     24  N1  UNL     1      21.786  60.297 -12.938  0.00  0.00    -0.121 NA
BRANCH  23  25
ATOM     25  C5  UNL     1      21.117  61.182 -10.763  0.00  0.00    +0.382 C 
ATOM     26  O1  UNL     1      20.553  61.123  -9.637  0.00  0.00    -0.244 OA
ATOM     27  O2  UNL     1      21.634  62.393 -11.209  0.00  0.00    -0.244 OA
ENDBRANCH  23  25
ENDBRANCH  22  23
ENDBRANCH  21  22
ENDBRANCH  20  21
ENDBRANCH  18  20
ENDBRANCH   1  18
TORSDOF 7
ENDMDL
MODEL 8
REMARK VINA RESULT:      -7.3      2.846      8.753
REMARK  Name = ./data/cofactor_redock/pdb/l0c0.pdb
REMARK  7 active torsions:
REMARK  status: ('A' for Active; 'I' for Inactive)
REMARK    1  A    between atoms: S1_2  and  C2_3
REMARK    2  A    between atoms: S1_2  and  C6_10
REMARK    3  A    between atoms: C2_3  and  C3_4
REMARK    4  A    between atoms: C3_4  and  C4_5
REMARK    5  A    between atoms: C4_5  and  C5_7
REMARK    6  A    between atoms: C6_10  and  C7_11
REMARK    7  A    between atoms: C8_13  and  N2_14
REMARK                            x       y       z     vdW  Elec       q    Type
REMARK                         _______ _______ _______ _____ _____    ______ ____
ROOT
ATOM      1  C7  UNL     1      20.792  60.349  -4.981  0.00  0.00    +0.160 C 
ATOM      2  O3  UNL     1      21.714  61.283  -4.457  0.00  0.00    -0.332 OA
ATOM      3  C8  UNL     1      21.538  61.344  -3.057  0.00  0.00    +0.241 C 
ATOM      4  C14 UNL     1      20.438  60.364  -2.635  0.00  0.00    +0.234 C 
ATOM      5  O4  UNL     1      20.985  59.196  -2.063  0.00  0.00    -0.216 OA
ATOM      6  C15 UNL     1      19.716  60.081  -3.931  0.00  0.00    +0.214 C 
ATOM      7  O5  UNL     1      19.251  58.756  -3.991  0.00  0.00    -0.218 OA
ENDROOT
BRANCH   3   8
ATOM      8  N2  UNL     1      21.188  62.714  -2.668  0.00  0.00    -0.269 N 
ATOM      9  C9  UNL     1      21.976  63.646  -2.070  0.00  0.00    +0.182 A 
ATOM     10  N3  UNL     1      21.364  64.853  -1.918  0.00  0.00    -0.219 NA
ATOM     11  C10 UNL     1      20.149  64.640  -2.460  0.00  0.00    +0.152 A 
ATOM     12  C11 UNL     1      19.086  65.522  -2.618  0.00  0.00    +0.192 A 
ATOM     13  N4  UNL     1      19.162  66.874  -2.155  0.00  0.00    -0.105 NA
ATOM     14  N5  UNL     1      17.959  65.054  -3.240  0.00  0.00    -0.204 NA
ATOM     15  C12 UNL     1      17.882  63.759  -3.693  0.00  0.00    +0.202 A 
ATOM     16  N6  UNL     1      18.936  62.902  -3.533  0.00  0.00    -0.205 NA
ATOM     17  C13 UNL     1      20.046  63.370  -2.913  0.00  0.00    +0.169 A 
ENDBRANCH   3   8
BRANCH   1  18
ATOM     18  C6  UNL     1      20.185  60.883  -6.283  0.00  0.00    +0.080 C 
BRANCH  18  20
ATOM     19  C1  UNL     1      19.372  58.463  -7.711  0.00  0.00    +0.059 C 
ATOM     20  S1  UNL     1      20.556  59.787  -7.644  0.00  0.00    -0.176 S 
BRANCH  20  21
ATOM     21  C2  UNL     1      20.602  60.654  -9.208  0.00  0.00    +0.050 C 
BRANCH  21  22
ATOM     22  C3  UNL     1      20.514  59.708 -10.419  0.00  0.00    +0.041 C 
BRANCH  22  23
ATOM     23  C4  UNL     1      21.877  59.347 -11.052  0.00  0.00    +0.195 C 
ATOM     24  N1  UNL     1      22.011  60.024 -12.345  0.00  0.00    -0.121 NA
BRANCH  23  25
ATOM     25  C5  UNL     1      22.048  57.859 -11.217  0.00  0.00    +0.382 C 
ATOM     26  O1  UNL     1      22.503  57.379 -12.291  0.00  0.00    -0.244 OA
ATOM     27  O2  UNL     1      21.729  57.007 -10.167  0.00  0.00    -0.244 OA
ENDBRANCH  23  25
ENDBRANCH  22  23
ENDBRANCH  21  22
ENDBRANCH  20  21
ENDBRANCH  18  20
ENDBRANCH   1  18
TORSDOF 7
ENDMDL
MODEL 9
REMARK VINA RESULT:      -7.0      4.027      5.564
REMARK  Name = ./data/cofactor_redock/pdb/l0c0.pdb
REMARK  7 active torsions:
REMARK  status: ('A' for Active; 'I' for Inactive)
REMARK    1  A    between atoms: S1_2  and  C2_3
REMARK    2  A    between atoms: S1_2  and  C6_10
REMARK    3  A    between atoms: C2_3  and  C3_4
REMARK    4  A    between atoms: C3_4  and  C4_5
REMARK    5  A    between atoms: C4_5  and  C5_7
REMARK    6  A    between atoms: C6_10  and  C7_11
REMARK    7  A    between atoms: C8_13  and  N2_14
REMARK                            x       y       z     vdW  Elec       q    Type
REMARK                         _______ _______ _______ _____ _____    ______ ____
ROOT
ATOM      1  C7  UNL     1      20.475  62.364  -3.735  0.00  0.00    +0.160 C 
ATOM      2  O3  UNL     1      21.240  61.200  -3.498  0.00  0.00    -0.332 OA
ATOM      3  C8  UNL     1      20.866  60.221  -4.444  0.00  0.00    +0.241 C 
ATOM      4  C14 UNL     1      19.797  60.795  -5.380  0.00  0.00    +0.234 C 
ATOM      5  O4  UNL     1      20.347  61.147  -6.630  0.00  0.00    -0.216 OA
ATOM      6  C15 UNL     1      19.287  61.997  -4.621  0.00  0.00    +0.214 C 
ATOM      7  O5  UNL     1      18.938  63.050  -5.484  0.00  0.00    -0.218 OA
ENDROOT
BRANCH   3   8
ATOM      8  N2  UNL     1      20.361  59.034  -3.746  0.00  0.00    -0.269 N 
ATOM      9  C9  UNL     1      20.244  58.832  -2.408  0.00  0.00    +0.182 A 
ATOM     10  N3  UNL     1      19.659  57.644  -2.090  0.00  0.00    -0.219 NA
ATOM     11  C10 UNL     1      19.402  57.108  -3.299  0.00  0.00    +0.152 A 
ATOM     12  C11 UNL     1      18.782  55.904  -3.617  0.00  0.00    +0.192 A 
ATOM     13  N4  UNL     1      18.331  55.005  -2.600  0.00  0.00    -0.105 NA
ATOM     14  N5  UNL     1      18.613  55.609  -4.944  0.00  0.00    -0.204 NA
ATOM     15  C12 UNL     1      19.037  56.472  -5.925  0.00  0.00    +0.202 A 
ATOM     16  N6  UNL     1      19.643  57.654  -5.598  0.00  0.00    -0.205 NA
ATOM     17  C13 UNL     1      19.812  57.938  -4.285  0.00  0.00    +0.169 A 
ENDBRANCH   3   8
BRANCH   1  18
ATOM     18  C6  UNL     1      20.017  62.972  -2.405  0.00  0.00    +0.080 C 
BRANCH  18  20
ATOM     19  C1  UNL     1      22.596  63.919  -1.402  0.00  0.00    +0.059 C 
ATOM     20  S1  UNL     1      20.996  64.411  -2.002  0.00  0.00    -0.176 S 
BRANCH  20  21
ATOM     21  C2  UNL     1      21.173  65.514  -3.398  0.00  0.00    +0.050 C 
BRANCH  21  22
ATOM     22  C3  UNL     1      19.847  66.183  -3.804  0.00  0.00    +0.041 C 
BRANCH  22  23
ATOM     23  C4  UNL     1      19.622  67.584  -3.191  0.00  0.00    +0.195 C 
ATOM     24  N1  UNL     1      18.329  67.617  -2.502  0.00  0.00    -0.121 NA
BRANCH  23  25
ATOM     25  C5  UNL     1      19.692  68.674  -4.230  0.00  0.00    +0.382 C 
ATOM     26  O1  UNL     1      18.941  69.684  -4.154  0.00  0.00    -0.244 OA
ATOM     27  O2  UNL     1      20.611  68.580  -5.268  0.00  0.00    -0.244 OA
ENDBRANCH  23  25
ENDBRANCH  22  23
ENDBRANCH  21  22
ENDBRANCH  20  21
ENDBRANCH  18  20
ENDBRANCH   1  18
TORSDOF 7
ENDMDL
