MODEL 1
REMARK VINA RESULT:      -9.5      0.000      0.000
REMARK  Name = ./data/4wxx_site_bc02/pdb/l0c2.pdb
REMARK  11 active torsions:
REMARK  status: ('A' for Active; 'I' for Inactive)
REMARK    1  A    between atoms: O1_2  and  C2_3
REMARK    2  A    between atoms: C5_6  and  C6_7
REMARK    3  A    between atoms: N2_9  and  C7_10
REMARK    4  A    between atoms: C19_23  and  O3_24
REMARK    5  A    between atoms: O3_24  and  C20_25
REMARK    6  A    between atoms: C20_25  and  C21_26
REMARK    7  A    between atoms: C21_26  and  C22_27
REMARK    8  A    between atoms: C22_27  and  C23_28
REMARK    9  A    between atoms: C23_28  and  O4_29
REMARK   10  A    between atoms: O4_29  and  C24_30
REMARK   11  A    between atoms: C27_33  and  C28_34
REMARK                            x       y       z     vdW  Elec       q    Type
REMARK                         _______ _______ _______ _____ _____    ______ ____
ROOT
ATOM      1  C2  UNL     1     -52.819  62.245   7.577  0.00  0.00    +0.172 A 
ATOM      2  C3  UNL     1     -51.689  62.197   8.410  0.00  0.00    +0.040 A 
ATOM      3  C4  UNL     1     -50.716  61.212   8.230  0.00  0.00    +0.005 A 
ATOM      4  C5  UNL     1     -50.850  60.244   7.220  0.00  0.00    +0.019 A 
ATOM      5  C18 UNL     1     -51.989  60.296   6.392  0.00  0.00    +0.041 A 
ATOM      6  C19 UNL     1     -52.967  61.295   6.558  0.00  0.00    +0.172 A 
ENDROOT
BRANCH   4   7
ATOM      7  C6  UNL     1     -49.830  59.175   6.998  0.00  0.00    +0.086 C 
ATOM      8  N1  UNL     1     -50.122  58.102   6.334  0.00  0.00    -0.171 NA
ATOM      9  N2  UNL     1     -49.002  57.278   6.234  0.00  0.00    -0.222 N 
ATOM     10  C14 UNL     1     -47.992  57.834   6.820  0.00  0.00    +0.257 C 
ATOM     11  O2  UNL     1     -46.721  57.264   6.862  0.00  0.00    -0.270 OA
ATOM     12  C15 UNL     1     -48.372  59.149   7.435  0.00  0.00    +0.110 C 
ATOM     13  C16 UNL     1     -47.543  60.279   6.803  0.00  0.00    +0.015 C 
ATOM     14  C17 UNL     1     -48.205  59.064   8.962  0.00  0.00    +0.015 C 
BRANCH   9  15
ATOM     15  C7  UNL     1     -49.023  55.997   5.513  0.00  0.00    +0.108 C 
ATOM     16  C8  UNL     1     -50.235  55.158   5.975  0.00  0.00    +0.024 C 
ATOM     17  C9  UNL     1     -50.122  53.667   5.634  0.00  0.00    +0.002 C 
ATOM     18  C10 UNL     1     -49.965  53.386   4.131  0.00  0.00    +0.000 C 
ATOM     19  C11 UNL     1     -48.545  53.692   3.627  0.00  0.00    +0.000 C 
ATOM     20  C12 UNL     1     -48.335  55.144   3.158  0.00  0.00    +0.002 C 
ATOM     21  C13 UNL     1     -49.038  56.236   3.985  0.00  0.00    +0.024 C 
ENDBRANCH   9  15
ENDBRANCH   4   7
BRANCH   1  23
ATOM     22  C1  UNL     1     -53.677  64.402   8.516  0.00  0.00    +0.253 C 
ATOM     23  O1  UNL     1     -53.815  63.223   7.729  0.00  0.00    -0.468 OA
ENDBRANCH   1  23
BRANCH   6  24
ATOM     24  O3  UNL     1     -54.103  61.384   5.733  0.00  0.00    -0.472 OA
BRANCH  24  25
ATOM     25  C20 UNL     1     -54.257  60.768   4.454  0.00  0.00    +0.206 C 
BRANCH  25  26
ATOM     26  C21 UNL     1     -54.838  61.763   3.441  0.00  0.00    +0.051 C 
BRANCH  26  27
ATOM     27  C22 UNL     1     -53.830  62.140   2.344  0.00  0.00    +0.051 C 
BRANCH  27  28
ATOM     28  C23 UNL     1     -53.120  63.469   2.631  0.00  0.00    +0.206 C 
BRANCH  28  29
ATOM     29  O4  UNL     1     -52.376  63.383   3.846  0.00  0.00    -0.475 OA
BRANCH  29  30
ATOM     30  C24 UNL     1     -51.136  63.995   4.088  0.00  0.00    +0.139 A 
ATOM     31  C25 UNL     1     -50.624  65.029   3.280  0.00  0.00    +0.037 A 
ATOM     32  C26 UNL     1     -49.384  65.606   3.571  0.00  0.00    +0.006 A 
ATOM     33  C27 UNL     1     -48.632  65.167   4.675  0.00  0.00    +0.040 A 
ATOM     34  C29 UNL     1     -49.147  64.135   5.477  0.00  0.00    +0.006 A 
ATOM     35  C30 UNL     1     -50.386  63.559   5.184  0.00  0.00    +0.037 A 
BRANCH  33  36
ATOM     36  C28 UNL     1     -47.320  65.786   4.988  0.00  0.00    +0.208 A 
ATOM     37  N3  UNL     1     -46.573  65.519   6.081  0.00  0.00    -0.106 NA
ATOM     38  N4  UNL     1     -45.496  66.279   5.975  0.00  0.00    -0.021 NA
ATOM     39  N5  UNL     1     -45.564  66.989   4.863  0.00  0.00    -0.021 NA
ATOM     40  N6  UNL     1     -46.688  66.705   4.227  0.00  0.00    -0.106 NA
ENDBRANCH  33  36
ENDBRANCH  29  30
ENDBRANCH  28  29
ENDBRANCH  27  28
ENDBRANCH  26  27
ENDBRANCH  25  26
ENDBRANCH  24  25
ENDBRANCH   6  24
TORSDOF 11
ENDMDL
MODEL 2
REMARK VINA RESULT:      -9.4      4.522      6.921
REMARK  Name = ./data/4wxx_site_bc02/pdb/l0c2.pdb
REMARK  11 active torsions:
REMARK  status: ('A' for Active; 'I' for Inactive)
REMARK    1  A    between atoms: O1_2  and  C2_3
REMARK    2  A    between atoms: C5_6  and  C6_7
REMARK    3  A    between atoms: N2_9  and  C7_10
REMARK    4  A    between atoms: C19_23  and  O3_24
REMARK    5  A    between atoms: O3_24  and  C20_25
REMARK    6  A    between atoms: C20_25  and  C21_26
REMARK    7  A    between atoms: C21_26  and  C22_27
REMARK    8  A    between atoms: C22_27  and  C23_28
REMARK    9  A    between atoms: C23_28  and  O4_29
REMARK   10  A    between atoms: O4_29  and  C24_30
REMARK   11  A    between atoms: C27_33  and  C28_34
REMARK                            x       y       z     vdW  Elec       q    Type
REMARK                         _______ _______ _______ _____ _____    ______ ____
ROOT
ATOM      1  C2  UNL     1     -49.477  60.313   5.961  0.00  0.00    +0.172 A 
ATOM      2  C3  UNL     1     -48.316  59.569   5.692  0.00  0.00    +0.040 A 
ATOM      3  C4  UNL     1     -48.391  58.194   5.458  0.00  0.00    +0.005 A 
ATOM      4  C5  UNL     1     -49.626  57.524   5.497  0.00  0.00    +0.019 A 
ATOM      5  C18 UNL     1     -50.786  58.277   5.772  0.00  0.00    +0.041 A 
ATOM      6  C19 UNL     1     -50.719  59.666   5.993  0.00  0.00    +0.172 A 
ENDROOT
BRANCH   4   7
ATOM      7  C6  UNL     1     -49.746  56.055   5.253  0.00  0.00    +0.086 C 
ATOM      8  N1  UNL     1     -50.843  55.421   5.523  0.00  0.00    -0.171 NA
ATOM      9  N2  UNL     1     -50.719  54.076   5.179  0.00  0.00    -0.222 N 
ATOM     10  C14 UNL     1     -49.548  53.857   4.674  0.00  0.00    +0.257 C 
ATOM     11  O2  UNL     1     -49.137  52.610   4.206  0.00  0.00    -0.270 OA
ATOM     12  C15 UNL     1     -48.715  55.105   4.662  0.00  0.00    +0.110 C 
ATOM     13  C16 UNL     1     -48.335  55.465   3.216  0.00  0.00    +0.015 C 
ATOM     14  C17 UNL     1     -47.490  54.907   5.573  0.00  0.00    +0.015 C 
BRANCH   9  15
ATOM     15  C7  UNL     1     -51.814  53.111   5.349  0.00  0.00    +0.108 C 
ATOM     16  C8  UNL     1     -52.691  53.524   6.552  0.00  0.00    +0.024 C 
ATOM     17  C9  UNL     1     -53.576  52.392   7.089  0.00  0.00    +0.002 C 
ATOM     18  C10 UNL     1     -54.543  51.814   6.044  0.00  0.00    +0.000 C 
ATOM     19  C11 UNL     1     -53.832  50.890   5.042  0.00  0.00    +0.000 C 
ATOM     20  C12 UNL     1     -53.265  51.609   3.804  0.00  0.00    +0.002 C 
ATOM     21  C13 UNL     1     -52.641  52.997   4.047  0.00  0.00    +0.024 C 
ENDBRANCH   9  15
ENDBRANCH   4   7
BRANCH   1  23
ATOM     22  C1  UNL     1     -48.243  62.449   6.390  0.00  0.00    +0.253 C 
ATOM     23  O1  UNL     1     -49.437  61.696   6.197  0.00  0.00    -0.468 OA
ENDBRANCH   1  23
BRANCH   6  24
ATOM     24  O3  UNL     1     -51.862  60.445   6.249  0.00  0.00    -0.472 OA
BRANCH  24  25
ATOM     25  C20 UNL     1     -52.555  60.527   7.495  0.00  0.00    +0.206 C 
BRANCH  25  26
ATOM     26  C21 UNL     1     -52.158  61.802   8.252  0.00  0.00    +0.051 C 
BRANCH  26  27
ATOM     27  C22 UNL     1     -51.560  61.502   9.635  0.00  0.00    +0.051 C 
BRANCH  27  28
ATOM     28  C23 UNL     1     -50.092  61.064   9.557  0.00  0.00    +0.206 C 
BRANCH  28  29
ATOM     29  O4  UNL     1     -49.869  59.924  10.387  0.00  0.00    -0.475 OA
BRANCH  29  30
ATOM     30  C24 UNL     1     -48.780  59.043  10.286  0.00  0.00    +0.139 A 
ATOM     31  C25 UNL     1     -48.384  58.194  11.337  0.00  0.00    +0.037 A 
ATOM     32  C26 UNL     1     -47.293  57.334  11.179  0.00  0.00    +0.006 A 
ATOM     33  C27 UNL     1     -46.579  57.299   9.968  0.00  0.00    +0.040 A 
ATOM     34  C29 UNL     1     -46.979  58.148   8.922  0.00  0.00    +0.006 A 
ATOM     35  C30 UNL     1     -48.068  59.009   9.083  0.00  0.00    +0.037 A 
BRANCH  33  36
ATOM     36  C28 UNL     1     -45.427  56.379   9.797  0.00  0.00    +0.208 A 
ATOM     37  N3  UNL     1     -44.466  56.153  10.719  0.00  0.00    -0.106 NA
ATOM     38  N4  UNL     1     -43.638  55.281  10.169  0.00  0.00    -0.021 NA
ATOM     39  N5  UNL     1     -44.062  54.973   8.957  0.00  0.00    -0.021 NA
ATOM     40  N6  UNL     1     -45.173  55.640   8.695  0.00  0.00    -0.106 NA
ENDBRANCH  33  36
ENDBRANCH  29  30
ENDBRANCH  28  29
ENDBRANCH  27  28
ENDBRANCH  26  27
ENDBRANCH  25  26
ENDBRANCH  24  25
ENDBRANCH   6  24
TORSDOF 11
ENDMDL
MODEL 3
REMARK VINA RESULT:      -8.0      2.896      6.790
REMARK  Name = ./data/4wxx_site_bc02/pdb/l0c2.pdb
REMARK  11 active torsions:
REMARK  status: ('A' for Active; 'I' for Inactive)
REMARK    1  A    between atoms: O1_2  and  C2_3
REMARK    2  A    between atoms: C5_6  and  C6_7
REMARK    3  A    between atoms: N2_9  and  C7_10
REMARK    4  A    between atoms: C19_23  and  O3_24
REMARK    5  A    between atoms: O3_24  and  C20_25
REMARK    6  A    between atoms: C20_25  and  C21_26
REMARK    7  A    between atoms: C21_26  and  C22_27
REMARK    8  A    between atoms: C22_27  and  C23_28
REMARK    9  A    between atoms: C23_28  and  O4_29
REMARK   10  A    between atoms: O4_29  and  C24_30
REMARK   11  A    between atoms: C27_33  and  C28_34
REMARK                            x       y       z     vdW  Elec       q    Type
REMARK                         _______ _______ _______ _____ _____    ______ ____
ROOT
ATOM      1  C2  UNL     1     -50.015  64.031   4.456  0.00  0.00    +0.172 A 
ATOM      2  C3  UNL     1     -48.684  63.884   4.881  0.00  0.00    +0.040 A 
ATOM      3  C4  UNL     1     -48.340  62.900   5.810  0.00  0.00    +0.005 A 
ATOM      4  C5  UNL     1     -49.316  62.044   6.347  0.00  0.00    +0.019 A 
ATOM      5  C18 UNL     1     -50.650  62.202   5.919  0.00  0.00    +0.041 A 
ATOM      6  C19 UNL     1     -51.002  63.181   4.971  0.00  0.00    +0.172 A 
ENDROOT
BRANCH   4   7
ATOM      7  C6  UNL     1     -48.986  60.981   7.343  0.00  0.00    +0.086 C 
ATOM      8  N1  UNL     1     -47.950  60.219   7.187  0.00  0.00    -0.171 NA
ATOM      9  N2  UNL     1     -47.838  59.334   8.258  0.00  0.00    -0.222 N 
ATOM     10  C14 UNL     1     -48.793  59.544   9.105  0.00  0.00    +0.257 C 
ATOM     11  O2  UNL     1     -48.930  58.834  10.297  0.00  0.00    -0.270 OA
ATOM     12  C15 UNL     1     -49.711  60.634   8.635  0.00  0.00    +0.110 C 
ATOM     13  C16 UNL     1     -49.707  61.791   9.648  0.00  0.00    +0.015 C 
ATOM     14  C17 UNL     1     -51.114  60.049   8.398  0.00  0.00    +0.015 C 
BRANCH   9  15
ATOM     15  C7  UNL     1     -46.742  58.361   8.370  0.00  0.00    +0.108 C 
ATOM     16  C8  UNL     1     -46.932  57.505   9.643  0.00  0.00    +0.024 C 
ATOM     17  C9  UNL     1     -45.660  56.777  10.094  0.00  0.00    +0.002 C 
ATOM     18  C10 UNL     1     -45.080  55.828   9.034  0.00  0.00    +0.000 C 
ATOM     19  C11 UNL     1     -44.346  56.585   7.915  0.00  0.00    +0.000 C 
ATOM     20  C12 UNL     1     -45.243  57.007   6.736  0.00  0.00    +0.002 C 
ATOM     21  C13 UNL     1     -46.662  57.487   7.096  0.00  0.00    +0.024 C 
ENDBRANCH   9  15
ENDBRANCH   4   7
BRANCH   1  23
ATOM     22  C1  UNL     1     -49.491  65.884   2.855  0.00  0.00    +0.253 C 
ATOM     23  O1  UNL     1     -50.395  65.007   3.521  0.00  0.00    -0.468 OA
ENDBRANCH   1  23
BRANCH   6  24
ATOM     24  O3  UNL     1     -52.321  63.347   4.511  0.00  0.00    -0.472 OA
BRANCH  24  25
ATOM     25  C20 UNL     1     -53.035  62.435   3.677  0.00  0.00    +0.206 C 
BRANCH  25  26
ATOM     26  C21 UNL     1     -54.360  62.023   4.336  0.00  0.00    +0.051 C 
BRANCH  26  27
ATOM     27  C22 UNL     1     -54.152  61.097   5.544  0.00  0.00    +0.051 C 
BRANCH  27  28
ATOM     28  C23 UNL     1     -53.825  59.657   5.129  0.00  0.00    +0.206 C 
BRANCH  28  29
ATOM     29  O4  UNL     1     -52.469  59.344   5.445  0.00  0.00    -0.475 OA
BRANCH  29  30
ATOM     30  C24 UNL     1     -51.870  58.081   5.309  0.00  0.00    +0.139 A 
ATOM     31  C25 UNL     1     -52.610  56.908   5.068  0.00  0.00    +0.037 A 
ATOM     32  C26 UNL     1     -51.960  55.677   4.936  0.00  0.00    +0.006 A 
ATOM     33  C27 UNL     1     -50.560  55.591   5.039  0.00  0.00    +0.040 A 
ATOM     34  C29 UNL     1     -49.828  56.766   5.280  0.00  0.00    +0.006 A 
ATOM     35  C30 UNL     1     -50.479  57.995   5.413  0.00  0.00    +0.037 A 
BRANCH  33  36
ATOM     36  C28 UNL     1     -49.871  54.286   4.891  0.00  0.00    +0.208 A 
ATOM     37  N3  UNL     1     -49.718  53.368   5.870  0.00  0.00    -0.106 NA
ATOM     38  N4  UNL     1     -49.051  52.366   5.324  0.00  0.00    -0.021 NA
ATOM     39  N5  UNL     1     -48.798  52.643   4.057  0.00  0.00    -0.021 NA
ATOM     40  N6  UNL     1     -49.294  53.831   3.757  0.00  0.00    -0.106 NA
ENDBRANCH  33  36
ENDBRANCH  29  30
ENDBRANCH  28  29
ENDBRANCH  27  28
ENDBRANCH  26  27
ENDBRANCH  25  26
ENDBRANCH  24  25
ENDBRANCH   6  24
TORSDOF 11
ENDMDL
MODEL 4
REMARK VINA RESULT:      -7.2      3.210      8.700
REMARK  Name = ./data/4wxx_site_bc02/pdb/l0c2.pdb
REMARK  11 active torsions:
REMARK  status: ('A' for Active; 'I' for Inactive)
REMARK    1  A    between atoms: O1_2  and  C2_3
REMARK    2  A    between atoms: C5_6  and  C6_7
REMARK    3  A    between atoms: N2_9  and  C7_10
REMARK    4  A    between atoms: C19_23  and  O3_24
REMARK    5  A    between atoms: O3_24  and  C20_25
REMARK    6  A    between atoms: C20_25  and  C21_26
REMARK    7  A    between atoms: C21_26  and  C22_27
REMARK    8  A    between atoms: C22_27  and  C23_28
REMARK    9  A    between atoms: C23_28  and  O4_29
REMARK   10  A    between atoms: O4_29  and  C24_30
REMARK   11  A    between atoms: C27_33  and  C28_34
REMARK                            x       y       z     vdW  Elec       q    Type
REMARK                         _______ _______ _______ _____ _____    ______ ____
ROOT
ATOM      1  C2  UNL     1     -50.344  60.730   7.451  0.00  0.00    +0.172 A 
ATOM      2  C3  UNL     1     -49.890  62.037   7.209  0.00  0.00    +0.040 A 
ATOM      3  C4  UNL     1     -50.534  62.851   6.276  0.00  0.00    +0.005 A 
ATOM      4  C5  UNL     1     -51.642  62.379   5.552  0.00  0.00    +0.019 A 
ATOM      5  C18 UNL     1     -52.089  61.065   5.797  0.00  0.00    +0.041 A 
ATOM      6  C19 UNL     1     -51.454  60.243   6.748  0.00  0.00    +0.172 A 
ENDROOT
BRANCH   4   7
ATOM      7  C6  UNL     1     -52.356  63.221   4.545  0.00  0.00    +0.086 C 
ATOM      8  N1  UNL     1     -51.701  63.983   3.727  0.00  0.00    -0.171 NA
ATOM      9  N2  UNL     1     -52.582  64.638   2.869  0.00  0.00    -0.222 N 
ATOM     10  C14 UNL     1     -53.798  64.280   3.129  0.00  0.00    +0.257 C 
ATOM     11  O2  UNL     1     -54.902  64.744   2.416  0.00  0.00    -0.270 OA
ATOM     12  C15 UNL     1     -53.851  63.318   4.279  0.00  0.00    +0.110 C 
ATOM     13  C16 UNL     1     -54.460  61.984   3.816  0.00  0.00    +0.015 C 
ATOM     14  C17 UNL     1     -54.627  63.959   5.443  0.00  0.00    +0.015 C 
BRANCH   9  15
ATOM     15  C7  UNL     1     -52.127  65.553   1.813  0.00  0.00    +0.108 C 
ATOM     16  C8  UNL     1     -50.779  66.190   2.221  0.00  0.00    +0.024 C 
ATOM     17  C9  UNL     1     -50.430  67.457   1.431  0.00  0.00    +0.002 C 
ATOM     18  C10 UNL     1     -50.347  67.238  -0.087  0.00  0.00    +0.000 C 
ATOM     19  C11 UNL     1     -51.737  67.121  -0.734  0.00  0.00    +0.000 C 
ATOM     20  C12 UNL     1     -52.302  65.689  -0.775  0.00  0.00    +0.002 C 
ATOM     21  C13 UNL     1     -52.025  64.811   0.460  0.00  0.00    +0.024 C 
ENDBRANCH   9  15
ENDBRANCH   4   7
BRANCH   1  23
ATOM     22  C1  UNL     1     -49.361  60.270   9.708  0.00  0.00    +0.253 C 
ATOM     23  O1  UNL     1     -49.722  59.886   8.385  0.00  0.00    -0.468 OA
ENDBRANCH   1  23
BRANCH   6  24
ATOM     24  O3  UNL     1     -51.891  58.936   7.027  0.00  0.00    -0.472 OA
BRANCH  24  25
ATOM     25  C20 UNL     1     -53.017  58.287   6.435  0.00  0.00    +0.206 C 
BRANCH  25  26
ATOM     26  C21 UNL     1     -52.708  57.880   4.988  0.00  0.00    +0.051 C 
BRANCH  26  27
ATOM     27  C22 UNL     1     -52.717  56.356   4.793  0.00  0.00    +0.051 C 
BRANCH  27  28
ATOM     28  C23 UNL     1     -51.345  55.809   4.379  0.00  0.00    +0.206 C 
BRANCH  28  29
ATOM     29  O4  UNL     1     -50.337  56.804   4.563  0.00  0.00    -0.475 OA
BRANCH  29  30
ATOM     30  C24 UNL     1     -49.094  56.599   5.184  0.00  0.00    +0.139 A 
ATOM     31  C25 UNL     1     -48.265  55.500   4.889  0.00  0.00    +0.037 A 
ATOM     32  C26 UNL     1     -47.035  55.350   5.535  0.00  0.00    +0.006 A 
ATOM     33  C27 UNL     1     -46.604  56.294   6.485  0.00  0.00    +0.040 A 
ATOM     34  C29 UNL     1     -47.437  57.388   6.775  0.00  0.00    +0.006 A 
ATOM     35  C30 UNL     1     -48.667  57.536   6.129  0.00  0.00    +0.037 A 
BRANCH  33  36
ATOM     36  C28 UNL     1     -45.294  56.138   7.165  0.00  0.00    +0.208 A 
ATOM     37  N3  UNL     1     -44.145  56.742   6.792  0.00  0.00    -0.106 NA
ATOM     38  N4  UNL     1     -43.228  56.333   7.652  0.00  0.00    -0.021 NA
ATOM     39  N5  UNL     1     -43.779  55.510   8.526  0.00  0.00    -0.021 NA
ATOM     40  N6  UNL     1     -45.064  55.367   8.250  0.00  0.00    -0.106 NA
ENDBRANCH  33  36
ENDBRANCH  29  30
ENDBRANCH  28  29
ENDBRANCH  27  28
ENDBRANCH  26  27
ENDBRANCH  25  26
ENDBRANCH  24  25
ENDBRANCH   6  24
TORSDOF 11
ENDMDL
MODEL 5
REMARK VINA RESULT:      -6.9      2.943      8.624
REMARK  Name = ./data/4wxx_site_bc02/pdb/l0c2.pdb
REMARK  11 active torsions:
REMARK  status: ('A' for Active; 'I' for Inactive)
REMARK    1  A    between atoms: O1_2  and  C2_3
REMARK    2  A    between atoms: C5_6  and  C6_7
REMARK    3  A    between atoms: N2_9  and  C7_10
REMARK    4  A    between atoms: C19_23  and  O3_24
REMARK    5  A    between atoms: O3_24  and  C20_25
REMARK    6  A    between atoms: C20_25  and  C21_26
REMARK    7  A    between atoms: C21_26  and  C22_27
REMARK    8  A    between atoms: C22_27  and  C23_28
REMARK    9  A    between atoms: C23_28  and  O4_29
REMARK   10  A    between atoms: O4_29  and  C24_30
REMARK   11  A    between atoms: C27_33  and  C28_34
REMARK                            x       y       z     vdW  Elec       q    Type
REMARK                         _______ _______ _______ _____ _____    ______ ____
ROOT
ATOM      1  C2  UNL     1     -49.528  61.305   7.688  0.00  0.00    +0.172 A 
ATOM      2  C3  UNL     1     -49.019  61.490   6.392  0.00  0.00    +0.040 A 
ATOM      3  C4  UNL     1     -49.793  62.104   5.405  0.00  0.00    +0.005 A 
ATOM      4  C5  UNL     1     -51.100  62.539   5.684  0.00  0.00    +0.019 A 
ATOM      5  C18 UNL     1     -51.605  62.346   6.985  0.00  0.00    +0.041 A 
ATOM      6  C19 UNL     1     -50.824  61.742   7.989  0.00  0.00    +0.172 A 
ENDROOT
BRANCH   4   7
ATOM      7  C6  UNL     1     -51.958  63.199   4.654  0.00  0.00    +0.086 C 
ATOM      8  N1  UNL     1     -51.455  64.031   3.798  0.00  0.00    -0.171 NA
ATOM      9  N2  UNL     1     -52.444  64.483   2.927  0.00  0.00    -0.222 N 
ATOM     10  C14 UNL     1     -53.575  63.927   3.217  0.00  0.00    +0.257 C 
ATOM     11  O2  UNL     1     -54.749  64.158   2.501  0.00  0.00    -0.270 OA
ATOM     12  C15 UNL     1     -53.449  63.018   4.405  0.00  0.00    +0.110 C 
ATOM     13  C16 UNL     1     -53.813  61.579   4.002  0.00  0.00    +0.015 C 
ATOM     14  C17 UNL     1     -54.319  63.559   5.553  0.00  0.00    +0.015 C 
BRANCH   9  15
ATOM     15  C7  UNL     1     -52.165  65.421   1.830  0.00  0.00    +0.108 C 
ATOM     16  C8  UNL     1     -50.924  66.275   2.177  0.00  0.00    +0.024 C 
ATOM     17  C9  UNL     1     -50.799  67.553   1.338  0.00  0.00    +0.002 C 
ATOM     18  C10 UNL     1     -50.722  67.295  -0.175  0.00  0.00    +0.000 C 
ATOM     19  C11 UNL     1     -52.091  66.940  -0.775  0.00  0.00    +0.000 C 
ATOM     20  C12 UNL     1     -52.425  65.436  -0.754  0.00  0.00    +0.002 C 
ATOM     21  C13 UNL     1     -51.982  64.656   0.498  0.00  0.00    +0.024 C 
ENDBRANCH   9  15
ENDBRANCH   4   7
BRANCH   1  23
ATOM     22  C1  UNL     1     -48.478  59.303   8.765  0.00  0.00    +0.253 C 
ATOM     23  O1  UNL     1     -48.775  60.695   8.704  0.00  0.00    -0.468 OA
ENDBRANCH   1  23
BRANCH   6  24
ATOM     24  O3  UNL     1     -51.295  61.554   9.301  0.00  0.00    -0.472 OA
BRANCH  24  25
ATOM     25  C20 UNL     1     -52.558  60.996   9.663  0.00  0.00    +0.206 C 
BRANCH  25  26
ATOM     26  C21 UNL     1     -53.706  61.890   9.174  0.00  0.00    +0.051 C 
BRANCH  26  27
ATOM     27  C22 UNL     1     -54.896  61.079   8.639  0.00  0.00    +0.051 C 
BRANCH  27  28
ATOM     28  C23 UNL     1     -54.637  60.513   7.237  0.00  0.00    +0.206 C 
BRANCH  28  29
ATOM     29  O4  UNL     1     -54.448  59.099   7.298  0.00  0.00    -0.475 OA
BRANCH  29  30
ATOM     30  C24 UNL     1     -53.531  58.366   6.529  0.00  0.00    +0.139 A 
ATOM     31  C25 UNL     1     -53.869  57.164   5.878  0.00  0.00    +0.037 A 
ATOM     32  C26 UNL     1     -52.915  56.477   5.121  0.00  0.00    +0.006 A 
ATOM     33  C27 UNL     1     -51.606  56.977   4.994  0.00  0.00    +0.040 A 
ATOM     34  C29 UNL     1     -51.275  58.177   5.646  0.00  0.00    +0.006 A 
ATOM     35  C30 UNL     1     -52.230  58.861   6.403  0.00  0.00    +0.037 A 
BRANCH  33  36
ATOM     36  C28 UNL     1     -50.597  56.253   4.183  0.00  0.00    +0.208 A 
ATOM     37  N3  UNL     1     -49.283  56.560   4.116  0.00  0.00    -0.106 NA
ATOM     38  N4  UNL     1     -48.749  55.679   3.287  0.00  0.00    -0.021 NA
ATOM     39  N5  UNL     1     -49.686  54.854   2.856  0.00  0.00    -0.021 NA
ATOM     40  N6  UNL     1     -50.848  55.185   3.394  0.00  0.00    -0.106 NA
ENDBRANCH  33  36
ENDBRANCH  29  30
ENDBRANCH  28  29
ENDBRANCH  27  28
ENDBRANCH  26  27
ENDBRANCH  25  26
ENDBRANCH  24  25
ENDBRANCH   6  24
TORSDOF 11
ENDMDL
