MODEL 1
REMARK VINA RESULT:      -6.2      0.000      0.000
REMARK  Name = ./data/4wxx_site_bc02/pdb/l1c0.pdb
REMARK  11 active torsions:
REMARK  status: ('A' for Active; 'I' for Inactive)
REMARK    1  A    between atoms: O1_2  and  C2_3
REMARK    2  A    between atoms: C5_6  and  C6_7
REMARK    3  A    between atoms: N2_9  and  C7_10
REMARK    4  A    between atoms: C22_26  and  O3_27
REMARK    5  A    between atoms: O3_27  and  C23_28
REMARK    6  A    between atoms: C23_28  and  C24_29
REMARK    7  A    between atoms: C24_29  and  C25_30
REMARK    8  A    between atoms: C25_30  and  C26_31
REMARK    9  A    between atoms: C26_31  and  O4_32
REMARK   10  A    between atoms: O4_32  and  C27_33
REMARK   11  A    between atoms: C30_36  and  C31_37
REMARK                            x       y       z     vdW  Elec       q    Type
REMARK                         _______ _______ _______ _____ _____    ______ ____
ROOT
ATOM      1  C2  UNL     1     -87.072  68.188 -10.049  0.00  0.00    +0.172 A 
ATOM      2  C3  UNL     1     -86.566  66.967 -10.524  0.00  0.00    +0.040 A 
ATOM      3  C4  UNL     1     -87.249  65.776 -10.279  0.00  0.00    +0.005 A 
ATOM      4  C5  UNL     1     -88.458  65.770  -9.562  0.00  0.00    +0.018 A 
ATOM      5  C21 UNL     1     -88.968  66.999  -9.100  0.00  0.00    +0.041 A 
ATOM      6  C22 UNL     1     -88.270  68.205  -9.322  0.00  0.00    +0.172 A 
ENDROOT
BRANCH   4   7
ATOM      7  C6  UNL     1     -89.169  64.478  -9.314  0.00  0.00    +0.079 C 
ATOM      8  N1  UNL     1     -88.768  63.414  -9.945  0.00  0.00    -0.172 NA
ATOM      9  N2  UNL     1     -89.352  62.139  -9.800  0.00  0.00    -0.222 N 
ATOM     10  C14 UNL     1     -90.176  61.884  -8.809  0.00  0.00    +0.253 C 
ATOM     11  O2  UNL     1     -90.662  60.584  -8.630  0.00  0.00    -0.271 OA
ATOM     12  C15 UNL     1     -90.531  62.977  -7.808  0.00  0.00    +0.091 C 
ATOM     13  C16 UNL     1     -91.949  62.827  -7.220  0.00  0.00    +0.035 C 
ATOM     14  C17 UNL     1     -92.961  62.930  -8.321  0.00  0.00    -0.030 C 
ATOM     15  C18 UNL     1     -92.805  63.848  -9.284  0.00  0.00    -0.030 C 
ATOM     16  C19 UNL     1     -91.671  64.846  -9.250  0.00  0.00    +0.032 C 
ATOM     17  C20 UNL     1     -90.407  64.390  -8.446  0.00  0.00    +0.056 C 
BRANCH   9  18
ATOM     18  C7  UNL     1     -88.925  61.106 -10.768  0.00  0.00    +0.108 C 
ATOM     19  C8  UNL     1     -89.377  61.469 -12.208  0.00  0.00    +0.024 C 
ATOM     20  C9  UNL     1     -89.673  60.227 -13.064  0.00  0.00    +0.002 C 
ATOM     21  C10 UNL     1     -88.414  59.534 -13.595  0.00  0.00    +0.000 C 
ATOM     22  C11 UNL     1     -87.476  59.037 -12.488  0.00  0.00    +0.000 C 
ATOM     23  C12 UNL     1     -86.704  60.188 -11.820  0.00  0.00    +0.002 C 
ATOM     24  C13 UNL     1     -87.414  60.790 -10.598  0.00  0.00    +0.024 C 
ENDBRANCH   9  18
ENDBRANCH   4   7
BRANCH   1  26
ATOM     25  C1  UNL     1     -86.284  70.026 -11.552  0.00  0.00    +0.253 C 
ATOM     26  O1  UNL     1     -86.413  69.407 -10.276  0.00  0.00    -0.468 OA
ENDBRANCH   1  26
BRANCH   6  27
ATOM     27  O3  UNL     1     -88.731  69.442  -8.841  0.00  0.00    -0.472 OA
BRANCH  27  28
ATOM     28  C23 UNL     1     -89.593  70.340  -9.539  0.00  0.00    +0.206 C 
BRANCH  28  29
ATOM     29  C24 UNL     1     -90.928  70.488  -8.804  0.00  0.00    +0.051 C 
BRANCH  29  30
ATOM     30  C25 UNL     1     -92.112  70.227  -9.742  0.00  0.00    +0.051 C 
BRANCH  30  31
ATOM     31  C26 UNL     1     -92.468  68.742  -9.792  0.00  0.00    +0.206 C 
BRANCH  31  32
ATOM     32  O4  UNL     1     -93.478  68.465  -8.823  0.00  0.00    -0.475 OA
BRANCH  32  33
ATOM     33  C27 UNL     1     -93.319  67.610  -7.724  0.00  0.00    +0.139 A 
ATOM     34  C28 UNL     1     -92.155  67.727  -6.962  0.00  0.00    +0.037 A 
ATOM     35  C29 UNL     1     -91.926  66.880  -5.876  0.00  0.00    +0.006 A 
ATOM     36  C30 UNL     1     -92.875  65.904  -5.516  0.00  0.00    +0.040 A 
ATOM     37  C32 UNL     1     -94.062  65.805  -6.270  0.00  0.00    +0.006 A 
ATOM     38  C33 UNL     1     -94.279  66.646  -7.367  0.00  0.00    +0.037 A 
BRANCH  36  39
ATOM     39  C31 UNL     1     -92.626  64.993  -4.369  0.00  0.00    +0.208 A 
ATOM     40  N3  UNL     1     -91.522  65.000  -3.591  0.00  0.00    -0.106 NA
ATOM     41  N4  UNL     1     -91.715  64.057  -2.685  0.00  0.00    -0.021 NA
ATOM     42  N5  UNL     1     -92.888  63.482  -2.888  0.00  0.00    -0.021 NA
ATOM     43  N6  UNL     1     -93.480  64.043  -3.926  0.00  0.00    -0.106 NA
ENDBRANCH  36  39
ENDBRANCH  32  33
ENDBRANCH  31  32
ENDBRANCH  30  31
ENDBRANCH  29  30
ENDBRANCH  28  29
ENDBRANCH  27  28
ENDBRANCH   6  27
TORSDOF 11
ENDMDL
MODEL 2
REMARK VINA RESULT:      -6.0      3.711      7.100
REMARK  Name = ./data/4wxx_site_bc02/pdb/l1c0.pdb
REMARK  11 active torsions:
REMARK  status: ('A' for Active; 'I' for Inactive)
REMARK    1  A    between atoms: O1_2  and  C2_3
REMARK    2  A    between atoms: C5_6  and  C6_7
REMARK    3  A    between atoms: N2_9  and  C7_10
REMARK    4  A    between atoms: C22_26  and  O3_27
REMARK    5  A    between atoms: O3_27  and  C23_28
REMARK    6  A    between atoms: C23_28  and  C24_29
REMARK    7  A    between atoms: C24_29  and  C25_30
REMARK    8  A    between atoms: C25_30  and  C26_31
REMARK    9  A    between atoms: C26_31  and  O4_32
REMARK   10  A    between atoms: O4_32  and  C27_33
REMARK   11  A    between atoms: C30_36  and  C31_37
REMARK                            x       y       z     vdW  Elec       q    Type
REMARK                         _______ _______ _______ _____ _____    ______ ____
ROOT
ATOM      1  C2  UNL     1     -84.984  61.066 -11.565  0.00  0.00    +0.172 A 
ATOM      2  C3  UNL     1     -85.750  59.963 -11.974  0.00  0.00    +0.040 A 
ATOM      3  C4  UNL     1     -87.128  59.939 -11.757  0.00  0.00    +0.005 A 
ATOM      4  C5  UNL     1     -87.780  61.017 -11.133  0.00  0.00    +0.018 A 
ATOM      5  C21 UNL     1     -87.009  62.127 -10.737  0.00  0.00    +0.041 A 
ATOM      6  C22 UNL     1     -85.612  62.147 -10.930  0.00  0.00    +0.172 A 
ENDROOT
BRANCH   4   7
ATOM      7  C6  UNL     1     -89.259  60.965 -10.912  0.00  0.00    +0.079 C 
ATOM      8  N1  UNL     1     -89.830  61.946 -10.279  0.00  0.00    -0.172 NA
ATOM      9  N2  UNL     1     -91.211  62.017 -10.007  0.00  0.00    -0.222 N 
ATOM     10  C14 UNL     1     -92.059  61.217 -10.614  0.00  0.00    +0.253 C 
ATOM     11  O2  UNL     1     -93.433  61.375 -10.402  0.00  0.00    -0.271 OA
ATOM     12  C15 UNL     1     -91.555  60.181 -11.612  0.00  0.00    +0.091 C 
ATOM     13  C16 UNL     1     -92.429  58.911 -11.666  0.00  0.00    +0.035 C 
ATOM     14  C17 UNL     1     -92.417  58.238 -10.327  0.00  0.00    -0.030 C 
ATOM     15  C18 UNL     1     -91.273  58.147  -9.638  0.00  0.00    -0.030 C 
ATOM     16  C19 UNL     1     -89.963  58.638 -10.211  0.00  0.00    +0.032 C 
ATOM     17  C20 UNL     1     -90.091  59.760 -11.297  0.00  0.00    +0.056 C 
BRANCH   9  18
ATOM     18  C7  UNL     1     -91.646  63.079  -9.074  0.00  0.00    +0.108 C 
ATOM     19  C8  UNL     1     -91.443  62.642  -7.598  0.00  0.00    +0.024 C 
ATOM     20  C9  UNL     1     -92.490  63.254  -6.653  0.00  0.00    +0.002 C 
ATOM     21  C10 UNL     1     -92.212  64.718  -6.297  0.00  0.00    +0.000 C 
ATOM     22  C11 UNL     1     -92.186  65.650  -7.515  0.00  0.00    +0.000 C 
ATOM     23  C12 UNL     1     -90.901  65.486  -8.344  0.00  0.00    +0.002 C 
ATOM     24  C13 UNL     1     -91.010  64.441  -9.465  0.00  0.00    +0.024 C 
ENDBRANCH   9  18
ENDBRANCH   4   7
BRANCH   1  26
ATOM     25  C1  UNL     1     -82.940  60.720 -12.963  0.00  0.00    +0.253 C 
ATOM     26  O1  UNL     1     -83.596  61.126 -11.767  0.00  0.00    -0.468 OA
ENDBRANCH   1  26
BRANCH   6  27
ATOM     27  O3  UNL     1     -84.808  63.222 -10.512  0.00  0.00    -0.472 OA
BRANCH  27  28
ATOM     28  C23 UNL     1     -85.268  64.537 -10.204  0.00  0.00    +0.206 C 
BRANCH  28  29
ATOM     29  C24 UNL     1     -84.769  65.541 -11.248  0.00  0.00    +0.051 C 
BRANCH  29  30
ATOM     30  C25 UNL     1     -85.768  65.685 -12.402  0.00  0.00    +0.051 C 
BRANCH  30  31
ATOM     31  C26 UNL     1     -87.208  65.525 -11.917  0.00  0.00    +0.206 C 
BRANCH  31  32
ATOM     32  O4  UNL     1     -87.849  66.801 -11.906  0.00  0.00    -0.475 OA
BRANCH  32  33
ATOM     33  C27 UNL     1     -87.680  67.772 -10.910  0.00  0.00    +0.139 A 
ATOM     34  C28 UNL     1     -87.067  68.976 -11.263  0.00  0.00    +0.037 A 
ATOM     35  C29 UNL     1     -86.841  69.967 -10.306  0.00  0.00    +0.006 A 
ATOM     36  C30 UNL     1     -87.246  69.779  -8.970  0.00  0.00    +0.040 A 
ATOM     37  C32 UNL     1     -87.888  68.574  -8.622  0.00  0.00    +0.006 A 
ATOM     38  C33 UNL     1     -88.097  67.577  -9.581  0.00  0.00    +0.037 A 
BRANCH  36  39
ATOM     39  C31 UNL     1     -86.994  70.828  -7.949  0.00  0.00    +0.208 A 
ATOM     40  N3  UNL     1     -87.947  71.510  -7.277  0.00  0.00    -0.106 NA
ATOM     41  N4  UNL     1     -87.298  72.321  -6.458  0.00  0.00    -0.021 NA
ATOM     42  N5  UNL     1     -85.996  72.157  -6.612  0.00  0.00    -0.021 NA
ATOM     43  N6  UNL     1     -85.774  71.234  -7.530  0.00  0.00    -0.106 NA
ENDBRANCH  36  39
ENDBRANCH  32  33
ENDBRANCH  31  32
ENDBRANCH  30  31
ENDBRANCH  29  30
ENDBRANCH  28  29
ENDBRANCH  27  28
ENDBRANCH   6  27
TORSDOF 11
ENDMDL
MODEL 3
REMARK VINA RESULT:      -6.0      3.653      7.396
REMARK  Name = ./data/4wxx_site_bc02/pdb/l1c0.pdb
REMARK  11 active torsions:
REMARK  status: ('A' for Active; 'I' for Inactive)
REMARK    1  A    between atoms: O1_2  and  C2_3
REMARK    2  A    between atoms: C5_6  and  C6_7
REMARK    3  A    between atoms: N2_9  and  C7_10
REMARK    4  A    between atoms: C22_26  and  O3_27
REMARK    5  A    between atoms: O3_27  and  C23_28
REMARK    6  A    between atoms: C23_28  and  C24_29
REMARK    7  A    between atoms: C24_29  and  C25_30
REMARK    8  A    between atoms: C25_30  and  C26_31
REMARK    9  A    between atoms: C26_31  and  O4_32
REMARK   10  A    between atoms: O4_32  and  C27_33
REMARK   11  A    between atoms: C30_36  and  C31_37
REMARK                            x       y       z     vdW  Elec       q    Type
REMARK                         _______ _______ _______ _____ _____    ______ ____
ROOT
ATOM      1  C2  UNL     1     -87.403  61.243 -10.418  0.00  0.00    +0.172 A 
ATOM      2  C3  UNL     1     -88.498  60.640  -9.779  0.00  0.00    +0.040 A 
ATOM      3  C4  UNL     1     -89.580  61.410  -9.353  0.00  0.00    +0.005 A 
ATOM      4  C5  UNL     1     -89.603  62.801  -9.559  0.00  0.00    +0.018 A 
ATOM      5  C21 UNL     1     -88.508  63.399 -10.213  0.00  0.00    +0.041 A 
ATOM      6  C22 UNL     1     -87.399  62.629 -10.624  0.00  0.00    +0.172 A 
ENDROOT
BRANCH   4   7
ATOM      7  C6  UNL     1     -90.776  63.603  -9.091  0.00  0.00    +0.079 C 
ATOM      8  N1  UNL     1     -90.928  64.810  -9.550  0.00  0.00    -0.172 NA
ATOM      9  N2  UNL     1     -91.988  65.667  -9.189  0.00  0.00    -0.222 N 
ATOM     10  C14 UNL     1     -93.048  65.202  -8.565  0.00  0.00    +0.253 C 
ATOM     11  O2  UNL     1     -94.128  66.053  -8.309  0.00  0.00    -0.271 OA
ATOM     12  C15 UNL     1     -93.136  63.725  -8.202  0.00  0.00    +0.091 C 
ATOM     13  C16 UNL     1     -93.955  63.460  -6.923  0.00  0.00    +0.035 C 
ATOM     14  C17 UNL     1     -93.297  64.134  -5.757  0.00  0.00    -0.030 C 
ATOM     15  C18 UNL     1     -91.964  64.096  -5.633  0.00  0.00    -0.030 C 
ATOM     16  C19 UNL     1     -91.101  63.317  -6.599  0.00  0.00    +0.032 C 
ATOM     17  C20 UNL     1     -91.722  63.102  -8.020  0.00  0.00    +0.056 C 
BRANCH   9  18
ATOM     18  C7  UNL     1     -91.871  67.077  -9.618  0.00  0.00    +0.108 C 
ATOM     19  C8  UNL     1     -91.232  67.948  -8.503  0.00  0.00    +0.024 C 
ATOM     20  C9  UNL     1     -91.749  69.396  -8.516  0.00  0.00    +0.002 C 
ATOM     21  C10 UNL     1     -91.116  70.263  -9.608  0.00  0.00    +0.000 C 
ATOM     22  C11 UNL     1     -91.367  69.740 -11.028  0.00  0.00    +0.000 C 
ATOM     23  C12 UNL     1     -90.512  68.503 -11.351  0.00  0.00    +0.002 C 
ATOM     24  C13 UNL     1     -91.193  67.168 -11.012  0.00  0.00    +0.024 C 
ENDBRANCH   9  18
ENDBRANCH   4   7
BRANCH   1  26
ATOM     25  C1  UNL     1     -86.283  59.707 -12.043  0.00  0.00    +0.253 C 
ATOM     26  O1  UNL     1     -86.297  60.500 -10.861  0.00  0.00    -0.468 OA
ENDBRANCH   1  26
BRANCH   6  27
ATOM     27  O3  UNL     1     -86.273  63.200 -11.243  0.00  0.00    -0.472 OA
BRANCH  27  28
ATOM     28  C23 UNL     1     -85.163  63.795 -10.572  0.00  0.00    +0.206 C 
BRANCH  28  29
ATOM     29  C24 UNL     1     -85.408  65.289 -10.345  0.00  0.00    +0.051 C 
BRANCH  29  30
ATOM     30  C25 UNL     1     -85.460  66.052 -11.673  0.00  0.00    +0.051 C 
BRANCH  30  31
ATOM     31  C26 UNL     1     -85.705  67.544 -11.450  0.00  0.00    +0.206 C 
BRANCH  31  32
ATOM     32  O4  UNL     1     -86.921  67.721 -10.725  0.00  0.00    -0.475 OA
BRANCH  32  33
ATOM     33  C27 UNL     1     -87.238  68.849  -9.957  0.00  0.00    +0.139 A 
ATOM     34  C28 UNL     1     -87.233  70.096 -10.586  0.00  0.00    +0.037 A 
ATOM     35  C29 UNL     1     -87.507  71.259  -9.864  0.00  0.00    +0.006 A 
ATOM     36  C30 UNL     1     -87.813  71.195  -8.491  0.00  0.00    +0.040 A 
ATOM     37  C32 UNL     1     -87.843  69.933  -7.864  0.00  0.00    +0.006 A 
ATOM     38  C33 UNL     1     -87.552  68.772  -8.588  0.00  0.00    +0.037 A 
BRANCH  36  39
ATOM     39  C31 UNL     1     -88.091  72.434  -7.719  0.00  0.00    +0.208 A 
ATOM     40  N3  UNL     1     -88.324  72.492  -6.390  0.00  0.00    -0.106 NA
ATOM     41  N4  UNL     1     -88.499  73.773  -6.112  0.00  0.00    -0.021 NA
ATOM     42  N5  UNL     1     -88.386  74.486  -7.219  0.00  0.00    -0.021 NA
ATOM     43  N6  UNL     1     -88.129  73.683  -8.235  0.00  0.00    -0.106 NA
ENDBRANCH  36  39
ENDBRANCH  32  33
ENDBRANCH  31  32
ENDBRANCH  30  31
ENDBRANCH  29  30
ENDBRANCH  28  29
ENDBRANCH  27  28
ENDBRANCH   6  27
TORSDOF 11
ENDMDL
MODEL 4
REMARK VINA RESULT:      -5.9      2.663      6.611
REMARK  Name = ./data/4wxx_site_bc02/pdb/l1c0.pdb
REMARK  11 active torsions:
REMARK  status: ('A' for Active; 'I' for Inactive)
REMARK    1  A    between atoms: O1_2  and  C2_3
REMARK    2  A    between atoms: C5_6  and  C6_7
REMARK    3  A    between atoms: N2_9  and  C7_10
REMARK    4  A    between atoms: C22_26  and  O3_27
REMARK    5  A    between atoms: O3_27  and  C23_28
REMARK    6  A    between atoms: C23_28  and  C24_29
REMARK    7  A    between atoms: C24_29  and  C25_30
REMARK    8  A    between atoms: C25_30  and  C26_31
REMARK    9  A    between atoms: C26_31  and  O4_32
REMARK   10  A    between atoms: O4_32  and  C27_33
REMARK   11  A    between atoms: C30_36  and  C31_37
REMARK                            x       y       z     vdW  Elec       q    Type
REMARK                         _______ _______ _______ _____ _____    ______ ____
ROOT
ATOM      1  C2  UNL     1     -88.379  71.038  -8.256  0.00  0.00    +0.172 A 
ATOM      2  C3  UNL     1     -89.363  70.927  -7.260  0.00  0.00    +0.040 A 
ATOM      3  C4  UNL     1     -90.125  69.764  -7.147  0.00  0.00    +0.005 A 
ATOM      4  C5  UNL     1     -89.923  68.679  -8.019  0.00  0.00    +0.018 A 
ATOM      5  C21 UNL     1     -88.925  68.791  -9.006  0.00  0.00    +0.041 A 
ATOM      6  C22 UNL     1     -88.167  69.974  -9.143  0.00  0.00    +0.172 A 
ENDROOT
BRANCH   4   7
ATOM      7  C6  UNL     1     -90.756  67.445  -7.875  0.00  0.00    +0.079 C 
ATOM      8  N1  UNL     1     -90.310  66.331  -8.376  0.00  0.00    -0.172 NA
ATOM      9  N2  UNL     1     -90.997  65.101  -8.309  0.00  0.00    -0.222 N 
ATOM     10  C14 UNL     1     -92.017  64.943  -7.496  0.00  0.00    +0.253 C 
ATOM     11  O2  UNL     1     -92.617  63.685  -7.374  0.00  0.00    -0.271 OA
ATOM     12  C15 UNL     1     -92.489  66.101  -6.624  0.00  0.00    +0.091 C 
ATOM     13  C16 UNL     1     -94.003  66.065  -6.330  0.00  0.00    +0.035 C 
ATOM     14  C17 UNL     1     -94.765  66.176  -7.615  0.00  0.00    -0.030 C 
ATOM     15  C18 UNL     1     -94.359  67.037  -8.557  0.00  0.00    -0.030 C 
ATOM     16  C19 UNL     1     -93.189  67.966  -8.329  0.00  0.00    +0.032 C 
ATOM     17  C20 UNL     1     -92.144  67.472  -7.272  0.00  0.00    +0.056 C 
BRANCH   9  18
ATOM     18  C7  UNL     1     -90.458  64.000  -9.135  0.00  0.00    +0.108 C 
ATOM     19  C8  UNL     1     -89.879  64.536 -10.472  0.00  0.00    +0.024 C 
ATOM     20  C9  UNL     1     -90.021  63.528 -11.624  0.00  0.00    +0.002 C 
ATOM     21  C10 UNL     1     -88.983  62.402 -11.583  0.00  0.00    +0.000 C 
ATOM     22  C11 UNL     1     -89.047  61.555 -10.306  0.00  0.00    +0.000 C 
ATOM     23  C12 UNL     1     -88.465  62.294  -9.090  0.00  0.00    +0.002 C 
ATOM     24  C13 UNL     1     -89.501  63.108  -8.298  0.00  0.00    +0.024 C 
ENDBRANCH   9  18
ENDBRANCH   4   7
BRANCH   1  26
ATOM     25  C1  UNL     1     -87.840  73.423  -7.729  0.00  0.00    +0.253 C 
ATOM     26  O1  UNL     1     -87.591  72.191  -8.399  0.00  0.00    -0.468 OA
ENDBRANCH   1  26
BRANCH   6  27
ATOM     27  O3  UNL     1     -87.192  70.133 -10.142  0.00  0.00    -0.472 OA
BRANCH  27  28
ATOM     28  C23 UNL     1     -87.428  70.116 -11.549  0.00  0.00    +0.206 C 
BRANCH  28  29
ATOM     29  C24 UNL     1     -86.219  70.671 -12.306  0.00  0.00    +0.051 C 
BRANCH  29  30
ATOM     30  C25 UNL     1     -85.077  69.649 -12.357  0.00  0.00    +0.051 C 
BRANCH  30  31
ATOM     31  C26 UNL     1     -85.610  68.225 -12.510  0.00  0.00    +0.206 C 
BRANCH  31  32
ATOM     32  O4  UNL     1     -85.097  67.412 -11.455  0.00  0.00    -0.475 OA
BRANCH  32  33
ATOM     33  C27 UNL     1     -85.037  66.013 -11.481  0.00  0.00    +0.139 A 
ATOM     34  C28 UNL     1     -85.759  65.305 -10.518  0.00  0.00    +0.037 A 
ATOM     35  C29 UNL     1     -85.710  63.910 -10.474  0.00  0.00    +0.006 A 
ATOM     36  C30 UNL     1     -84.946  63.190 -11.412  0.00  0.00    +0.040 A 
ATOM     37  C32 UNL     1     -84.239  63.905 -12.400  0.00  0.00    +0.006 A 
ATOM     38  C33 UNL     1     -84.278  65.303 -12.430  0.00  0.00    +0.037 A 
BRANCH  36  39
ATOM     39  C31 UNL     1     -84.883  61.706 -11.357  0.00  0.00    +0.208 A 
ATOM     40  N3  UNL     1     -83.933  60.987 -10.721  0.00  0.00    -0.106 NA
ATOM     41  N4  UNL     1     -84.263  59.719 -10.899  0.00  0.00    -0.021 NA
ATOM     42  N5  UNL     1     -85.370  59.647 -11.619  0.00  0.00    -0.021 NA
ATOM     43  N6  UNL     1     -85.782  60.865 -11.917  0.00  0.00    -0.106 NA
ENDBRANCH  36  39
ENDBRANCH  32  33
ENDBRANCH  31  32
ENDBRANCH  30  31
ENDBRANCH  29  30
ENDBRANCH  28  29
ENDBRANCH  27  28
ENDBRANCH   6  27
TORSDOF 11
ENDMDL
MODEL 5
REMARK VINA RESULT:      -5.9      4.204      7.522
REMARK  Name = ./data/4wxx_site_bc02/pdb/l1c0.pdb
REMARK  11 active torsions:
REMARK  status: ('A' for Active; 'I' for Inactive)
REMARK    1  A    between atoms: O1_2  and  C2_3
REMARK    2  A    between atoms: C5_6  and  C6_7
REMARK    3  A    between atoms: N2_9  and  C7_10
REMARK    4  A    between atoms: C22_26  and  O3_27
REMARK    5  A    between atoms: O3_27  and  C23_28
REMARK    6  A    between atoms: C23_28  and  C24_29
REMARK    7  A    between atoms: C24_29  and  C25_30
REMARK    8  A    between atoms: C25_30  and  C26_31
REMARK    9  A    between atoms: C26_31  and  O4_32
REMARK   10  A    between atoms: O4_32  and  C27_33
REMARK   11  A    between atoms: C30_36  and  C31_37
REMARK                            x       y       z     vdW  Elec       q    Type
REMARK                         _______ _______ _______ _____ _____    ______ ____
ROOT
ATOM      1  C2  UNL     1     -87.250  70.768  -7.518  0.00  0.00    +0.172 A 
ATOM      2  C3  UNL     1     -87.285  69.489  -8.096  0.00  0.00    +0.040 A 
ATOM      3  C4  UNL     1     -88.495  68.811  -8.240  0.00  0.00    +0.005 A 
ATOM      4  C5  UNL     1     -89.704  69.393  -7.818  0.00  0.00    +0.018 A 
ATOM      5  C21 UNL     1     -89.665  70.682  -7.252  0.00  0.00    +0.041 A 
ATOM      6  C22 UNL     1     -88.441  71.363  -7.080  0.00  0.00    +0.172 A 
ENDROOT
BRANCH   4   7
ATOM      7  C6  UNL     1     -90.987  68.643  -7.984  0.00  0.00    +0.079 C 
ATOM      8  N1  UNL     1     -91.453  67.973  -6.971  0.00  0.00    -0.172 NA
ATOM      9  N2  UNL     1     -92.649  67.226  -6.997  0.00  0.00    -0.222 N 
ATOM     10  C14 UNL     1     -93.516  67.377  -7.973  0.00  0.00    +0.253 C 
ATOM     11  O2  UNL     1     -94.739  66.699  -7.923  0.00  0.00    -0.271 OA
ATOM     12  C15 UNL     1     -93.229  68.351  -9.109  0.00  0.00    +0.091 C 
ATOM     13  C16 UNL     1     -93.855  67.922 -10.452  0.00  0.00    +0.035 C 
ATOM     14  C17 UNL     1     -93.276  66.607 -10.878  0.00  0.00    -0.030 C 
ATOM     15  C18 UNL     1     -91.965  66.378 -10.729  0.00  0.00    -0.030 C 
ATOM     16  C19 UNL     1     -91.028  67.447 -10.213  0.00  0.00    +0.032 C 
ATOM     17  C20 UNL     1     -91.699  68.542  -9.317  0.00  0.00    +0.056 C 
BRANCH   9  18
ATOM     18  C7  UNL     1     -92.897  66.340  -5.840  0.00  0.00    +0.108 C 
ATOM     19  C8  UNL     1     -92.562  64.864  -6.185  0.00  0.00    +0.024 C 
ATOM     20  C9  UNL     1     -93.449  63.865  -5.425  0.00  0.00    +0.002 C 
ATOM     21  C10 UNL     1     -93.028  63.658  -3.966  0.00  0.00    +0.000 C 
ATOM     22  C11 UNL     1     -93.071  64.943  -3.128  0.00  0.00    +0.000 C 
ATOM     23  C12 UNL     1     -91.902  65.888  -3.454  0.00  0.00    +0.002 C 
ATOM     24  C13 UNL     1     -92.212  66.904  -4.565  0.00  0.00    +0.024 C 
ENDBRANCH   9  18
ENDBRANCH   4   7
BRANCH   1  26
ATOM     25  C1  UNL     1     -85.483  72.332  -8.349  0.00  0.00    +0.253 C 
ATOM     26  O1  UNL     1     -86.051  71.482  -7.358  0.00  0.00    -0.468 OA
ENDBRANCH   1  26
BRANCH   6  27
ATOM     27  O3  UNL     1     -88.363  72.633  -6.483  0.00  0.00    -0.472 OA
BRANCH  27  28
ATOM     28  C23 UNL     1     -88.403  73.883  -7.172  0.00  0.00    +0.206 C 
BRANCH  28  29
ATOM     29  C24 UNL     1     -89.554  73.905  -8.182  0.00  0.00    +0.051 C 
BRANCH  29  30
ATOM     30  C25 UNL     1     -89.045  73.676  -9.610  0.00  0.00    +0.051 C 
BRANCH  30  31
ATOM     31  C26 UNL     1     -89.810  72.547 -10.300  0.00  0.00    +0.206 C 
BRANCH  31  32
ATOM     32  O4  UNL     1     -89.110  72.152 -11.479  0.00  0.00    -0.475 OA
BRANCH  32  33
ATOM     33  C27 UNL     1     -88.248  71.051 -11.567  0.00  0.00    +0.139 A 
ATOM     34  C28 UNL     1     -86.883  71.266 -11.366  0.00  0.00    +0.037 A 
ATOM     35  C29 UNL     1     -85.972  70.213 -11.474  0.00  0.00    +0.006 A 
ATOM     36  C30 UNL     1     -86.416  68.909 -11.768  0.00  0.00    +0.040 A 
ATOM     37  C32 UNL     1     -87.797  68.690 -11.945  0.00  0.00    +0.006 A 
ATOM     38  C33 UNL     1     -88.704  69.751 -11.851  0.00  0.00    +0.037 A 
BRANCH  36  39
ATOM     39  C31 UNL     1     -85.446  67.791 -11.897  0.00  0.00    +0.208 A 
ATOM     40  N3  UNL     1     -84.511  67.675 -12.864  0.00  0.00    -0.106 NA
ATOM     41  N4  UNL     1     -83.854  66.559 -12.595  0.00  0.00    -0.021 NA
ATOM     42  N5  UNL     1     -84.358  65.999 -11.509  0.00  0.00    -0.021 NA
ATOM     43  N6  UNL     1     -85.348  66.742 -11.050  0.00  0.00    -0.106 NA
ENDBRANCH  36  39
ENDBRANCH  32  33
ENDBRANCH  31  32
ENDBRANCH  30  31
ENDBRANCH  29  30
ENDBRANCH  28  29
ENDBRANCH  27  28
ENDBRANCH   6  27
TORSDOF 11
ENDMDL
MODEL 6
REMARK VINA RESULT:      -5.8      4.265      7.931
REMARK  Name = ./data/4wxx_site_bc02/pdb/l1c0.pdb
REMARK  11 active torsions:
REMARK  status: ('A' for Active; 'I' for Inactive)
REMARK    1  A    between atoms: O1_2  and  C2_3
REMARK    2  A    between atoms: C5_6  and  C6_7
REMARK    3  A    between atoms: N2_9  and  C7_10
REMARK    4  A    between atoms: C22_26  and  O3_27
REMARK    5  A    between atoms: O3_27  and  C23_28
REMARK    6  A    between atoms: C23_28  and  C24_29
REMARK    7  A    between atoms: C24_29  and  C25_30
REMARK    8  A    between atoms: C25_30  and  C26_31
REMARK    9  A    between atoms: C26_31  and  O4_32
REMARK   10  A    between atoms: O4_32  and  C27_33
REMARK   11  A    between atoms: C30_36  and  C31_37
REMARK                            x       y       z     vdW  Elec       q    Type
REMARK                         _______ _______ _______ _____ _____    ______ ____
ROOT
ATOM      1  C2  UNL     1     -87.449  70.334  -8.069  0.00  0.00    +0.172 A 
ATOM      2  C3  UNL     1     -88.536  70.811  -7.318  0.00  0.00    +0.040 A 
ATOM      3  C4  UNL     1     -89.762  70.146  -7.348  0.00  0.00    +0.005 A 
ATOM      4  C5  UNL     1     -89.935  68.983  -8.120  0.00  0.00    +0.018 A 
ATOM      5  C21 UNL     1     -88.838  68.501  -8.859  0.00  0.00    +0.041 A 
ATOM      6  C22 UNL     1     -87.603  69.183  -8.854  0.00  0.00    +0.172 A 
ENDROOT
BRANCH   4   7
ATOM      7  C6  UNL     1     -91.261  68.291  -8.133  0.00  0.00    +0.079 C 
ATOM      8  N1  UNL     1     -91.660  67.687  -7.053  0.00  0.00    -0.172 NA
ATOM      9  N2  UNL     1     -92.885  67.000  -6.935  0.00  0.00    -0.222 N 
ATOM     10  C14 UNL     1     -93.832  67.152  -7.834  0.00  0.00    +0.253 C 
ATOM     11  O2  UNL     1     -95.074  66.538  -7.641  0.00  0.00    -0.271 OA
ATOM     12  C15 UNL     1     -93.608  68.063  -9.035  0.00  0.00    +0.091 C 
ATOM     13  C16 UNL     1     -94.376  67.611 -10.294  0.00  0.00    +0.035 C 
ATOM     14  C17 UNL     1     -93.899  66.253 -10.710  0.00  0.00    -0.030 C 
ATOM     15  C18 UNL     1     -92.591  65.966 -10.671  0.00  0.00    -0.030 C 
ATOM     16  C19 UNL     1     -91.564  67.008 -10.292  0.00  0.00    +0.032 C 
ATOM     17  C20 UNL     1     -92.098  68.170  -9.389  0.00  0.00    +0.056 C 
BRANCH   9  18
ATOM     18  C7  UNL     1     -93.064  66.175  -5.721  0.00  0.00    +0.108 C 
ATOM     19  C8  UNL     1     -92.782  64.677  -6.016  0.00  0.00    +0.024 C 
ATOM     20  C9  UNL     1     -93.629  63.735  -5.146  0.00  0.00    +0.002 C 
ATOM     21  C10 UNL     1     -93.106  63.589  -3.713  0.00  0.00    +0.000 C 
ATOM     22  C11 UNL     1     -93.064  64.912  -2.938  0.00  0.00    +0.000 C 
ATOM     23  C12 UNL     1     -91.906  65.815  -3.394  0.00  0.00    +0.002 C 
ATOM     24  C13 UNL     1     -92.278  66.784  -4.528  0.00  0.00    +0.024 C 
ENDBRANCH   9  18
ENDBRANCH   4   7
BRANCH   1  26
ATOM     25  C1  UNL     1     -85.546  71.452  -6.892  0.00  0.00    +0.253 C 
ATOM     26  O1  UNL     1     -86.201  70.976  -8.064  0.00  0.00    -0.468 OA
ENDBRANCH   1  26
BRANCH   6  27
ATOM     27  O3  UNL     1     -86.500  68.751  -9.611  0.00  0.00    -0.472 OA
BRANCH  27  28
ATOM     28  C23 UNL     1     -86.458  67.586 -10.434  0.00  0.00    +0.206 C 
BRANCH  28  29
ATOM     29  C24 UNL     1     -87.338  67.769 -11.674  0.00  0.00    +0.051 C 
BRANCH  29  30
ATOM     30  C25 UNL     1     -86.490  67.962 -12.936  0.00  0.00    +0.051 C 
BRANCH  30  31
ATOM     31  C26 UNL     1     -86.316  69.443 -13.270  0.00  0.00    +0.206 C 
BRANCH  31  32
ATOM     32  O4  UNL     1     -87.523  70.141 -12.965  0.00  0.00    -0.475 OA
BRANCH  32  33
ATOM     33  C27 UNL     1     -87.632  71.175 -12.025  0.00  0.00    +0.139 A 
ATOM     34  C28 UNL     1     -88.875  71.391 -11.426  0.00  0.00    +0.037 A 
ATOM     35  C29 UNL     1     -89.052  72.428 -10.508  0.00  0.00    +0.006 A 
ATOM     36  C30 UNL     1     -87.975  73.265 -10.155  0.00  0.00    +0.040 A 
ATOM     37  C32 UNL     1     -86.716  73.028 -10.741  0.00  0.00    +0.006 A 
ATOM     38  C33 UNL     1     -86.547  71.998 -11.672  0.00  0.00    +0.037 A 
BRANCH  36  39
ATOM     39  C31 UNL     1     -88.167  74.377  -9.188  0.00  0.00    +0.208 A 
ATOM     40  N3  UNL     1     -89.036  75.400  -9.336  0.00  0.00    -0.106 NA
ATOM     41  N4  UNL     1     -88.904  76.143  -8.250  0.00  0.00    -0.021 NA
ATOM     42  N5  UNL     1     -87.989  75.610  -7.458  0.00  0.00    -0.021 NA
ATOM     43  N6  UNL     1     -87.514  74.510  -8.012  0.00  0.00    -0.106 NA
ENDBRANCH  36  39
ENDBRANCH  32  33
ENDBRANCH  31  32
ENDBRANCH  30  31
ENDBRANCH  29  30
ENDBRANCH  28  29
ENDBRANCH  27  28
ENDBRANCH   6  27
TORSDOF 11
ENDMDL
MODEL 7
REMARK VINA RESULT:      -4.9      3.516      6.379
REMARK  Name = ./data/4wxx_site_bc02/pdb/l1c0.pdb
REMARK  11 active torsions:
REMARK  status: ('A' for Active; 'I' for Inactive)
REMARK    1  A    between atoms: O1_2  and  C2_3
REMARK    2  A    between atoms: C5_6  and  C6_7
REMARK    3  A    between atoms: N2_9  and  C7_10
REMARK    4  A    between atoms: C22_26  and  O3_27
REMARK    5  A    between atoms: O3_27  and  C23_28
REMARK    6  A    between atoms: C23_28  and  C24_29
REMARK    7  A    between atoms: C24_29  and  C25_30
REMARK    8  A    between atoms: C25_30  and  C26_31
REMARK    9  A    between atoms: C26_31  and  O4_32
REMARK   10  A    between atoms: O4_32  and  C27_33
REMARK   11  A    between atoms: C30_36  and  C31_37
REMARK                            x       y       z     vdW  Elec       q    Type
REMARK                         _______ _______ _______ _____ _____    ______ ____
ROOT
ATOM      1  C2  UNL     1     -87.263  69.979  -8.252  0.00  0.00    +0.172 A 
ATOM      2  C3  UNL     1     -88.351  70.306  -7.427  0.00  0.00    +0.040 A 
ATOM      3  C4  UNL     1     -89.526  69.556  -7.476  0.00  0.00    +0.005 A 
ATOM      4  C5  UNL     1     -89.646  68.455  -8.342  0.00  0.00    +0.018 A 
ATOM      5  C21 UNL     1     -88.546  68.123  -9.157  0.00  0.00    +0.041 A 
ATOM      6  C22 UNL     1     -87.364  68.892  -9.132  0.00  0.00    +0.172 A 
ENDROOT
BRANCH   4   7
ATOM      7  C6  UNL     1     -90.917  67.669  -8.374  0.00  0.00    +0.079 C 
ATOM      8  N1  UNL     1     -90.855  66.377  -8.237  0.00  0.00    -0.172 NA
ATOM      9  N2  UNL     1     -91.978  65.524  -8.249  0.00  0.00    -0.222 N 
ATOM     10  C14 UNL     1     -93.194  66.009  -8.131  0.00  0.00    +0.253 C 
ATOM     11  O2  UNL     1     -94.282  65.134  -8.044  0.00  0.00    -0.271 OA
ATOM     12  C15 UNL     1     -93.410  67.512  -8.000  0.00  0.00    +0.091 C 
ATOM     13  C16 UNL     1     -94.749  67.989  -8.597  0.00  0.00    +0.035 C 
ATOM     14  C17 UNL     1     -94.776  67.693 -10.066  0.00  0.00    -0.030 C 
ATOM     15  C18 UNL     1     -93.681  67.905 -10.807  0.00  0.00    -0.030 C 
ATOM     16  C19 UNL     1     -92.431  68.514 -10.216  0.00  0.00    +0.032 C 
ATOM     17  C20 UNL     1     -92.257  68.309  -8.674  0.00  0.00    +0.056 C 
BRANCH   9  18
ATOM     18  C7  UNL     1     -91.702  64.073  -8.322  0.00  0.00    +0.108 C 
ATOM     19  C8  UNL     1     -91.513  63.614  -9.793  0.00  0.00    +0.024 C 
ATOM     20  C9  UNL     1     -91.980  62.168 -10.024  0.00  0.00    +0.002 C 
ATOM     21  C10 UNL     1     -90.984  61.115  -9.529  0.00  0.00    +0.000 C 
ATOM     22  C11 UNL     1     -90.698  61.203  -8.024  0.00  0.00    +0.000 C 
ATOM     23  C12 UNL     1     -89.792  62.395  -7.674  0.00  0.00    +0.002 C 
ATOM     24  C13 UNL     1     -90.558  63.686  -7.345  0.00  0.00    +0.024 C 
ENDBRANCH   9  18
ENDBRANCH   4   7
BRANCH   1  26
ATOM     25  C1  UNL     1     -85.911  71.984  -7.614  0.00  0.00    +0.253 C 
ATOM     26  O1  UNL     1     -86.065  70.709  -8.231  0.00  0.00    -0.468 OA
ENDBRANCH   1  26
BRANCH   6  27
ATOM     27  O3  UNL     1     -86.264  68.611  -9.960  0.00  0.00    -0.472 OA
BRANCH  27  28
ATOM     28  C23 UNL     1     -86.059  67.405 -10.695  0.00  0.00    +0.206 C 
BRANCH  28  29
ATOM     29  C24 UNL     1     -85.426  67.704 -12.057  0.00  0.00    +0.051 C 
BRANCH  29  30
ATOM     30  C25 UNL     1     -85.318  69.214 -12.301  0.00  0.00    +0.051 C 
BRANCH  30  31
ATOM     31  C26 UNL     1     -85.915  69.604 -13.652  0.00  0.00    +0.206 C 
BRANCH  31  32
ATOM     32  O4  UNL     1     -86.518  70.893 -13.548  0.00  0.00    -0.475 OA
BRANCH  32  33
ATOM     33  C27 UNL     1     -87.481  71.251 -12.594  0.00  0.00    +0.139 A 
ATOM     34  C28 UNL     1     -87.185  72.300 -11.722  0.00  0.00    +0.037 A 
ATOM     35  C29 UNL     1     -88.091  72.678 -10.729  0.00  0.00    +0.006 A 
ATOM     36  C30 UNL     1     -89.330  72.021 -10.602  0.00  0.00    +0.040 A 
ATOM     37  C32 UNL     1     -89.638  70.980 -11.501  0.00  0.00    +0.006 A 
ATOM     38  C33 UNL     1     -88.720  70.594 -12.483  0.00  0.00    +0.037 A 
BRANCH  36  39
ATOM     39  C31 UNL     1     -90.289  72.415  -9.538  0.00  0.00    +0.208 A 
ATOM     40  N3  UNL     1     -91.540  71.926  -9.392  0.00  0.00    -0.106 NA
ATOM     41  N4  UNL     1     -92.034  72.519  -8.319  0.00  0.00    -0.021 NA
ATOM     42  N5  UNL     1     -91.135  73.346  -7.816  0.00  0.00    -0.021 NA
ATOM     43  N6  UNL     1     -90.038  73.302  -8.549  0.00  0.00    -0.106 NA
ENDBRANCH  36  39
ENDBRANCH  32  33
ENDBRANCH  31  32
ENDBRANCH  30  31
ENDBRANCH  29  30
ENDBRANCH  28  29
ENDBRANCH  27  28
ENDBRANCH   6  27
TORSDOF 11
ENDMDL
MODEL 8
REMARK VINA RESULT:      -4.8      2.793      6.822
REMARK  Name = ./data/4wxx_site_bc02/pdb/l1c0.pdb
REMARK  11 active torsions:
REMARK  status: ('A' for Active; 'I' for Inactive)
REMARK    1  A    between atoms: O1_2  and  C2_3
REMARK    2  A    between atoms: C5_6  and  C6_7
REMARK    3  A    between atoms: N2_9  and  C7_10
REMARK    4  A    between atoms: C22_26  and  O3_27
REMARK    5  A    between atoms: O3_27  and  C23_28
REMARK    6  A    between atoms: C23_28  and  C24_29
REMARK    7  A    between atoms: C24_29  and  C25_30
REMARK    8  A    between atoms: C25_30  and  C26_31
REMARK    9  A    between atoms: C26_31  and  O4_32
REMARK   10  A    between atoms: O4_32  and  C27_33
REMARK   11  A    between atoms: C30_36  and  C31_37
REMARK                            x       y       z     vdW  Elec       q    Type
REMARK                         _______ _______ _______ _____ _____    ______ ____
ROOT
ATOM      1  C2  UNL     1     -88.194  70.936  -8.550  0.00  0.00    +0.172 A 
ATOM      2  C3  UNL     1     -89.346  71.719  -8.373  0.00  0.00    +0.040 A 
ATOM      3  C4  UNL     1     -90.613  71.140  -8.451  0.00  0.00    +0.005 A 
ATOM      4  C5  UNL     1     -90.765  69.764  -8.699  0.00  0.00    +0.018 A 
ATOM      5  C21 UNL     1     -89.605  68.981  -8.861  0.00  0.00    +0.041 A 
ATOM      6  C22 UNL     1     -88.322  69.565  -8.810  0.00  0.00    +0.172 A 
ENDROOT
BRANCH   4   7
ATOM      7  C6  UNL     1     -92.135  69.170  -8.778  0.00  0.00    +0.079 C 
ATOM      8  N1  UNL     1     -92.404  68.125  -8.052  0.00  0.00    -0.172 NA
ATOM      9  N2  UNL     1     -93.654  67.472  -8.034  0.00  0.00    -0.222 N 
ATOM     10  C14 UNL     1     -94.718  68.041  -8.555  0.00  0.00    +0.253 C 
ATOM     11  O2  UNL     1     -95.964  67.417  -8.435  0.00  0.00    -0.271 OA
ATOM     12  C15 UNL     1     -94.611  69.415  -9.207  0.00  0.00    +0.091 C 
ATOM     13  C16 UNL     1     -95.619  69.624 -10.355  0.00  0.00    +0.035 C 
ATOM     14  C17 UNL     1     -95.354  68.627 -11.442  0.00  0.00    -0.030 C 
ATOM     15  C18 UNL     1     -94.092  68.349 -11.796  0.00  0.00    -0.030 C 
ATOM     16  C19 UNL     1     -92.919  69.077 -11.181  0.00  0.00    +0.032 C 
ATOM     17  C20 UNL     1     -93.178  69.669  -9.755  0.00  0.00    +0.056 C 
BRANCH   9  18
ATOM     18  C7  UNL     1     -93.706  66.169  -7.339  0.00  0.00    +0.108 C 
ATOM     19  C8  UNL     1     -93.318  65.009  -8.296  0.00  0.00    +0.024 C 
ATOM     20  C9  UNL     1     -94.043  63.697  -7.956  0.00  0.00    +0.002 C 
ATOM     21  C10 UNL     1     -93.441  62.958  -6.756  0.00  0.00    +0.000 C 
ATOM     22  C11 UNL     1     -93.469  63.773  -5.457  0.00  0.00    +0.000 C 
ATOM     23  C12 UNL     1     -92.411  64.889  -5.449  0.00  0.00    +0.002 C 
ATOM     24  C13 UNL     1     -92.915  66.231  -6.004  0.00  0.00    +0.024 C 
ENDBRANCH   9  18
ENDBRANCH   4   7
BRANCH   1  26
ATOM     25  C1  UNL     1     -86.132  71.571  -7.284  0.00  0.00    +0.253 C 
ATOM     26  O1  UNL     1     -86.903  71.483  -8.478  0.00  0.00    -0.468 OA
ENDBRANCH   1  26
BRANCH   6  27
ATOM     27  O3  UNL     1     -87.146  68.819  -9.007  0.00  0.00    -0.472 OA
BRANCH  27  28
ATOM     28  C23 UNL     1     -86.641  68.375 -10.265  0.00  0.00    +0.206 C 
BRANCH  28  29
ATOM     29  C24 UNL     1     -87.385  67.121 -10.732  0.00  0.00    +0.051 C 
BRANCH  29  30
ATOM     30  C25 UNL     1     -87.618  66.147  -9.571  0.00  0.00    +0.051 C 
BRANCH  30  31
ATOM     31  C26 UNL     1     -87.493  64.694 -10.028  0.00  0.00    +0.206 C 
BRANCH  31  32
ATOM     32  O4  UNL     1     -88.776  64.071  -9.979  0.00  0.00    -0.475 OA
BRANCH  32  33
ATOM     33  C27 UNL     1     -89.015  62.769  -9.520  0.00  0.00    +0.139 A 
ATOM     34  C28 UNL     1     -89.652  62.612  -8.287  0.00  0.00    +0.037 A 
ATOM     35  C29 UNL     1     -89.887  61.340  -7.762  0.00  0.00    +0.006 A 
ATOM     36  C30 UNL     1     -89.502  60.189  -8.477  0.00  0.00    +0.040 A 
ATOM     37  C32 UNL     1     -88.883  60.348  -9.732  0.00  0.00    +0.006 A 
ATOM     38  C33 UNL     1     -88.636  61.625 -10.246  0.00  0.00    +0.037 A 
BRANCH  36  39
ATOM     39  C31 UNL     1     -89.740  58.835  -7.913  0.00  0.00    +0.208 A 
ATOM     40  N3  UNL     1     -90.727  57.993  -8.289  0.00  0.00    -0.106 NA
ATOM     41  N4  UNL     1     -90.564  56.901  -7.561  0.00  0.00    -0.021 NA
ATOM     42  N5  UNL     1     -89.523  57.053  -6.762  0.00  0.00    -0.021 NA
ATOM     43  N6  UNL     1     -88.987  58.243  -6.958  0.00  0.00    -0.106 NA
ENDBRANCH  36  39
ENDBRANCH  32  33
ENDBRANCH  31  32
ENDBRANCH  30  31
ENDBRANCH  29  30
ENDBRANCH  28  29
ENDBRANCH  27  28
ENDBRANCH   6  27
TORSDOF 11
ENDMDL
MODEL 9
REMARK VINA RESULT:      -4.5      3.219      7.456
REMARK  Name = ./data/4wxx_site_bc02/pdb/l1c0.pdb
REMARK  11 active torsions:
REMARK  status: ('A' for Active; 'I' for Inactive)
REMARK    1  A    between atoms: O1_2  and  C2_3
REMARK    2  A    between atoms: C5_6  and  C6_7
REMARK    3  A    between atoms: N2_9  and  C7_10
REMARK    4  A    between atoms: C22_26  and  O3_27
REMARK    5  A    between atoms: O3_27  and  C23_28
REMARK    6  A    between atoms: C23_28  and  C24_29
REMARK    7  A    between atoms: C24_29  and  C25_30
REMARK    8  A    between atoms: C25_30  and  C26_31
REMARK    9  A    between atoms: C26_31  and  O4_32
REMARK   10  A    between atoms: O4_32  and  C27_33
REMARK   11  A    between atoms: C30_36  and  C31_37
REMARK                            x       y       z     vdW  Elec       q    Type
REMARK                         _______ _______ _______ _____ _____    ______ ____
ROOT
ATOM      1  C2  UNL     1     -87.916  70.634  -8.080  0.00  0.00    +0.172 A 
ATOM      2  C3  UNL     1     -89.088  70.340  -7.364  0.00  0.00    +0.040 A 
ATOM      3  C4  UNL     1     -89.967  69.359  -7.820  0.00  0.00    +0.005 A 
ATOM      4  C5  UNL     1     -89.699  68.638  -8.997  0.00  0.00    +0.018 A 
ATOM      5  C21 UNL     1     -88.516  68.927  -9.704  0.00  0.00    +0.041 A 
ATOM      6  C22 UNL     1     -87.634  69.937  -9.263  0.00  0.00    +0.172 A 
ENDROOT
BRANCH   4   7
ATOM      7  C6  UNL     1     -90.661  67.592  -9.463  0.00  0.00    +0.079 C 
ATOM      8  N1  UNL     1     -91.428  67.015  -8.586  0.00  0.00    -0.172 NA
ATOM      9  N2  UNL     1     -92.374  66.016  -8.895  0.00  0.00    -0.222 N 
ATOM     10  C14 UNL     1     -92.733  65.790 -10.139  0.00  0.00    +0.253 C 
ATOM     11  O2  UNL     1     -93.746  64.864 -10.409  0.00  0.00    -0.271 OA
ATOM     12  C15 UNL     1     -92.111  66.595 -11.274  0.00  0.00    +0.091 C 
ATOM     13  C16 UNL     1     -92.014  65.808 -12.597  0.00  0.00    +0.035 C 
ATOM     14  C17 UNL     1     -91.132  64.612 -12.405  0.00  0.00    -0.030 C 
ATOM     15  C18 UNL     1     -90.004  64.726 -11.693  0.00  0.00    -0.030 C 
ATOM     16  C19 UNL     1     -89.549  66.056 -11.138  0.00  0.00    +0.032 C 
ATOM     17  C20 UNL     1     -90.690  67.100 -10.895  0.00  0.00    +0.056 C 
BRANCH   9  18
ATOM     18  C7  UNL     1     -92.983  65.308  -7.748  0.00  0.00    +0.108 C 
ATOM     19  C8  UNL     1     -93.370  63.855  -8.131  0.00  0.00    +0.024 C 
ATOM     20  C9  UNL     1     -94.604  63.351  -7.366  0.00  0.00    +0.002 C 
ATOM     21  C10 UNL     1     -94.301  62.930  -5.924  0.00  0.00    +0.000 C 
ATOM     22  C11 UNL     1     -93.734  64.064  -5.060  0.00  0.00    +0.000 C 
ATOM     23  C12 UNL     1     -92.268  64.377  -5.402  0.00  0.00    +0.002 C 
ATOM     24  C13 UNL     1     -92.094  65.455  -6.483  0.00  0.00    +0.024 C 
ENDBRANCH   9  18
ENDBRANCH   4   7
BRANCH   1  26
ATOM     25  C1  UNL     1     -86.386  71.631  -6.371  0.00  0.00    +0.253 C 
ATOM     26  O1  UNL     1     -87.007  71.614  -7.652  0.00  0.00    -0.468 OA
ENDBRANCH   1  26
BRANCH   6  27
ATOM     27  O3  UNL     1     -86.465  70.277  -9.966  0.00  0.00    -0.472 OA
BRANCH  27  28
ATOM     28  C23 UNL     1     -86.395  71.142 -11.098  0.00  0.00    +0.206 C 
BRANCH  28  29
ATOM     29  C24 UNL     1     -86.307  70.329 -12.393  0.00  0.00    +0.051 C 
BRANCH  29  30
ATOM     30  C25 UNL     1     -85.305  69.177 -12.259  0.00  0.00    +0.051 C 
BRANCH  30  31
ATOM     31  C26 UNL     1     -85.944  67.837 -12.620  0.00  0.00    +0.206 C 
BRANCH  31  32
ATOM     32  O4  UNL     1     -86.020  67.019 -11.453  0.00  0.00    -0.475 OA
BRANCH  32  33
ATOM     33  C27 UNL     1     -85.701  65.656 -11.409  0.00  0.00    +0.139 A 
ATOM     34  C28 UNL     1     -84.708  65.184 -12.271  0.00  0.00    +0.037 A 
ATOM     35  C29 UNL     1     -84.371  63.830 -12.296  0.00  0.00    +0.006 A 
ATOM     36  C30 UNL     1     -85.013  62.916 -11.438  0.00  0.00    +0.040 A 
ATOM     37  C32 UNL     1     -85.996  63.398 -10.551  0.00  0.00    +0.006 A 
ATOM     38  C33 UNL     1     -86.342  64.753 -10.541  0.00  0.00    +0.037 A 
BRANCH  36  39
ATOM     39  C31 UNL     1     -84.664  61.472 -11.474  0.00  0.00    +0.208 A 
ATOM     40  N3  UNL     1     -85.286  60.499 -10.773  0.00  0.00    -0.106 NA
ATOM     41  N4  UNL     1     -84.684  59.372 -11.111  0.00  0.00    -0.021 NA
ATOM     42  N5  UNL     1     -83.724  59.627 -11.983  0.00  0.00    -0.021 NA
ATOM     43  N6  UNL     1     -83.688  60.923 -12.232  0.00  0.00    -0.106 NA
ENDBRANCH  36  39
ENDBRANCH  32  33
ENDBRANCH  31  32
ENDBRANCH  30  31
ENDBRANCH  29  30
ENDBRANCH  28  29
ENDBRANCH  27  28
ENDBRANCH   6  27
TORSDOF 11
ENDMDL
