MODEL 1
REMARK VINA RESULT:      -7.3      0.000      0.000
REMARK  Name = ./data/4wxx_site_bc02/pdb/l0c2.pdb
REMARK  11 active torsions:
REMARK  status: ('A' for Active; 'I' for Inactive)
REMARK    1  A    between atoms: O1_2  and  C2_3
REMARK    2  A    between atoms: C5_6  and  C6_7
REMARK    3  A    between atoms: N2_9  and  C7_10
REMARK    4  A    between atoms: C19_23  and  O3_24
REMARK    5  A    between atoms: O3_24  and  C20_25
REMARK    6  A    between atoms: C20_25  and  C21_26
REMARK    7  A    between atoms: C21_26  and  C22_27
REMARK    8  A    between atoms: C22_27  and  C23_28
REMARK    9  A    between atoms: C23_28  and  O4_29
REMARK   10  A    between atoms: O4_29  and  C24_30
REMARK   11  A    between atoms: C27_33  and  C28_34
REMARK                            x       y       z     vdW  Elec       q    Type
REMARK                         _______ _______ _______ _____ _____    ______ ____
ROOT
ATOM      1  C2  UNL     1     -36.128  67.744 -23.672  0.00  0.00    +0.172 A 
ATOM      2  C3  UNL     1     -36.799  67.405 -22.485  0.00  0.00    +0.040 A 
ATOM      3  C4  UNL     1     -37.326  66.125 -22.309  0.00  0.00    +0.005 A 
ATOM      4  C5  UNL     1     -37.206  65.152 -23.316  0.00  0.00    +0.019 A 
ATOM      5  C18 UNL     1     -36.535  65.501 -24.505  0.00  0.00    +0.041 A 
ATOM      6  C19 UNL     1     -35.987  66.785 -24.684  0.00  0.00    +0.172 A 
ENDROOT
BRANCH   4   7
ATOM      7  C6  UNL     1     -37.757  63.772 -23.163  0.00  0.00    +0.086 C 
ATOM      8  N1  UNL     1     -38.402  63.425 -22.094  0.00  0.00    -0.171 NA
ATOM      9  N2  UNL     1     -38.842  62.107 -22.204  0.00  0.00    -0.222 N 
ATOM     10  C14 UNL     1     -38.493  61.620 -23.349  0.00  0.00    +0.257 C 
ATOM     11  O2  UNL     1     -38.818  60.329 -23.764  0.00  0.00    -0.270 OA
ATOM     12  C15 UNL     1     -37.708  62.616 -24.152  0.00  0.00    +0.110 C 
ATOM     13  C16 UNL     1     -38.446  62.926 -25.465  0.00  0.00    +0.015 C 
ATOM     14  C17 UNL     1     -36.283  62.078 -24.376  0.00  0.00    +0.015 C 
BRANCH   9  15
ATOM     15  C7  UNL     1     -39.626  61.444 -21.152  0.00  0.00    +0.108 C 
ATOM     16  C8  UNL     1     -39.173  61.953 -19.765  0.00  0.00    +0.024 C 
ATOM     17  C9  UNL     1     -39.591  61.041 -18.605  0.00  0.00    +0.002 C 
ATOM     18  C10 UNL     1     -41.110  60.832 -18.499  0.00  0.00    +0.000 C 
ATOM     19  C11 UNL     1     -41.638  59.855 -19.562  0.00  0.00    +0.000 C 
ATOM     20  C12 UNL     1     -42.039  60.518 -20.893  0.00  0.00    +0.002 C 
ATOM     21  C13 UNL     1     -41.139  61.670 -21.380  0.00  0.00    +0.024 C 
ENDBRANCH   9  15
ENDBRANCH   4   7
BRANCH   1  23
ATOM     22  C1  UNL     1     -34.992  69.825 -22.864  0.00  0.00    +0.253 C 
ATOM     23  O1  UNL     1     -35.583  69.021 -23.881  0.00  0.00    -0.468 OA
ENDBRANCH   1  23
BRANCH   6  24
ATOM     24  O3  UNL     1     -35.295  67.155 -25.851  0.00  0.00    -0.472 OA
BRANCH  24  25
ATOM     25  C20 UNL     1     -34.795  66.259 -26.845  0.00  0.00    +0.206 C 
BRANCH  25  26
ATOM     26  C21 UNL     1     -33.793  66.974 -27.762  0.00  0.00    +0.051 C 
BRANCH  26  27
ATOM     27  C22 UNL     1     -32.335  66.674 -27.384  0.00  0.00    +0.051 C 
BRANCH  27  28
ATOM     28  C23 UNL     1     -31.923  67.334 -26.062  0.00  0.00    +0.206 C 
BRANCH  28  29
ATOM     29  O4  UNL     1     -31.483  66.346 -25.130  0.00  0.00    -0.475 OA
BRANCH  29  30
ATOM     30  C24 UNL     1     -32.263  65.789 -24.104  0.00  0.00    +0.139 A 
ATOM     31  C25 UNL     1     -32.711  64.454 -24.125  0.00  0.00    +0.037 A 
ATOM     32  C26 UNL     1     -33.482  63.951 -23.072  0.00  0.00    +0.006 A 
ATOM     33  C27 UNL     1     -33.819  64.766 -21.977  0.00  0.00    +0.040 A 
ATOM     34  C29 UNL     1     -33.369  66.098 -21.963  0.00  0.00    +0.006 A 
ATOM     35  C30 UNL     1     -32.600  66.599 -23.016  0.00  0.00    +0.037 A 
BRANCH  33  36
ATOM     36  C28 UNL     1     -34.630  64.229 -20.857  0.00  0.00    +0.208 A 
ATOM     37  N3  UNL     1     -35.198  64.969 -19.880  0.00  0.00    -0.106 NA
ATOM     38  N4  UNL     1     -35.819  64.108 -19.091  0.00  0.00    -0.021 NA
ATOM     39  N5  UNL     1     -35.649  62.883 -19.555  0.00  0.00    -0.021 NA
ATOM     40  N6  UNL     1     -34.913  62.924 -20.653  0.00  0.00    -0.106 NA
ENDBRANCH  33  36
ENDBRANCH  29  30
ENDBRANCH  28  29
ENDBRANCH  27  28
ENDBRANCH  26  27
ENDBRANCH  25  26
ENDBRANCH  24  25
ENDBRANCH   6  24
TORSDOF 11
ENDMDL
MODEL 2
REMARK VINA RESULT:      -6.5      2.503      3.896
REMARK  Name = ./data/4wxx_site_bc02/pdb/l0c2.pdb
REMARK  11 active torsions:
REMARK  status: ('A' for Active; 'I' for Inactive)
REMARK    1  A    between atoms: O1_2  and  C2_3
REMARK    2  A    between atoms: C5_6  and  C6_7
REMARK    3  A    between atoms: N2_9  and  C7_10
REMARK    4  A    between atoms: C19_23  and  O3_24
REMARK    5  A    between atoms: O3_24  and  C20_25
REMARK    6  A    between atoms: C20_25  and  C21_26
REMARK    7  A    between atoms: C21_26  and  C22_27
REMARK    8  A    between atoms: C22_27  and  C23_28
REMARK    9  A    between atoms: C23_28  and  O4_29
REMARK   10  A    between atoms: O4_29  and  C24_30
REMARK   11  A    between atoms: C27_33  and  C28_34
REMARK                            x       y       z     vdW  Elec       q    Type
REMARK                         _______ _______ _______ _____ _____    ______ ____
ROOT
ATOM      1  C2  UNL     1     -38.072  68.005 -25.457  0.00  0.00    +0.172 A 
ATOM      2  C3  UNL     1     -38.258  66.801 -26.156  0.00  0.00    +0.040 A 
ATOM      3  C4  UNL     1     -38.175  65.575 -25.494  0.00  0.00    +0.005 A 
ATOM      4  C5  UNL     1     -37.893  65.517 -24.119  0.00  0.00    +0.019 A 
ATOM      5  C18 UNL     1     -37.704  66.729 -23.425  0.00  0.00    +0.041 A 
ATOM      6  C19 UNL     1     -37.802  67.970 -24.082  0.00  0.00    +0.172 A 
ENDROOT
BRANCH   4   7
ATOM      7  C6  UNL     1     -37.796  64.224 -23.377  0.00  0.00    +0.086 C 
ATOM      8  N1  UNL     1     -38.786  63.786 -22.666  0.00  0.00    -0.171 NA
ATOM      9  N2  UNL     1     -38.466  62.552 -22.102  0.00  0.00    -0.222 N 
ATOM     10  C14 UNL     1     -37.277  62.196 -22.467  0.00  0.00    +0.257 C 
ATOM     11  O2  UNL     1     -36.688  60.991 -22.088  0.00  0.00    -0.270 OA
ATOM     12  C15 UNL     1     -36.637  63.238 -23.337  0.00  0.00    +0.110 C 
ATOM     13  C16 UNL     1     -36.318  62.641 -24.718  0.00  0.00    +0.015 C 
ATOM     14  C17 UNL     1     -35.394  63.801 -22.625  0.00  0.00    +0.015 C 
BRANCH   9  15
ATOM     15  C7  UNL     1     -39.406  61.797 -21.262  0.00  0.00    +0.108 C 
ATOM     16  C8  UNL     1     -39.066  62.017 -19.771  0.00  0.00    +0.024 C 
ATOM     17  C9  UNL     1     -39.675  60.966 -18.836  0.00  0.00    +0.002 C 
ATOM     18  C10 UNL     1     -41.208  60.886 -18.908  0.00  0.00    +0.000 C 
ATOM     19  C11 UNL     1     -41.694  60.160 -20.173  0.00  0.00    +0.000 C 
ATOM     20  C12 UNL     1     -41.898  61.075 -21.395  0.00  0.00    +0.002 C 
ATOM     21  C13 UNL     1     -40.865  62.201 -21.584  0.00  0.00    +0.024 C 
ENDBRANCH   9  15
ENDBRANCH   4   7
BRANCH   1  23
ATOM     22  C1  UNL     1     -37.072  69.886 -26.773  0.00  0.00    +0.253 C 
ATOM     23  O1  UNL     1     -38.152  69.255 -26.091  0.00  0.00    -0.468 OA
ENDBRANCH   1  23
BRANCH   6  24
ATOM     24  O3  UNL     1     -37.637  69.195 -23.411  0.00  0.00    -0.472 OA
BRANCH  24  25
ATOM     25  C20 UNL     1     -37.252  69.354 -22.046  0.00  0.00    +0.206 C 
BRANCH  25  26
ATOM     26  C21 UNL     1     -37.451  70.807 -21.593  0.00  0.00    +0.051 C 
BRANCH  26  27
ATOM     27  C22 UNL     1     -36.641  71.802 -22.438  0.00  0.00    +0.051 C 
BRANCH  27  28
ATOM     28  C23 UNL     1     -35.296  72.160 -21.794  0.00  0.00    +0.206 C 
BRANCH  28  29
ATOM     29  O4  UNL     1     -34.227  71.510 -22.481  0.00  0.00    -0.475 OA
BRANCH  29  30
ATOM     30  C24 UNL     1     -33.643  70.287 -22.110  0.00  0.00    +0.139 A 
ATOM     31  C25 UNL     1     -32.997  70.093 -20.875  0.00  0.00    +0.037 A 
ATOM     32  C26 UNL     1     -32.438  68.852 -20.557  0.00  0.00    +0.006 A 
ATOM     33  C27 UNL     1     -32.516  67.778 -21.462  0.00  0.00    +0.040 A 
ATOM     34  C29 UNL     1     -33.162  67.979 -22.694  0.00  0.00    +0.006 A 
ATOM     35  C30 UNL     1     -33.719  69.221 -23.010  0.00  0.00    +0.037 A 
BRANCH  33  36
ATOM     36  C28 UNL     1     -31.929  66.459 -21.121  0.00  0.00    +0.208 A 
ATOM     37  N3  UNL     1     -30.630  66.235 -20.826  0.00  0.00    -0.106 NA
ATOM     38  N4  UNL     1     -30.533  64.938 -20.590  0.00  0.00    -0.021 NA
ATOM     39  N5  UNL     1     -31.720  64.374 -20.729  0.00  0.00    -0.021 NA
ATOM     40  N6  UNL     1     -32.610  65.293 -21.060  0.00  0.00    -0.106 NA
ENDBRANCH  33  36
ENDBRANCH  29  30
ENDBRANCH  28  29
ENDBRANCH  27  28
ENDBRANCH  26  27
ENDBRANCH  25  26
ENDBRANCH  24  25
ENDBRANCH   6  24
TORSDOF 11
ENDMDL
MODEL 3
REMARK VINA RESULT:      -6.0      2.661      3.910
REMARK  Name = ./data/4wxx_site_bc02/pdb/l0c2.pdb
REMARK  11 active torsions:
REMARK  status: ('A' for Active; 'I' for Inactive)
REMARK    1  A    between atoms: O1_2  and  C2_3
REMARK    2  A    between atoms: C5_6  and  C6_7
REMARK    3  A    between atoms: N2_9  and  C7_10
REMARK    4  A    between atoms: C19_23  and  O3_24
REMARK    5  A    between atoms: O3_24  and  C20_25
REMARK    6  A    between atoms: C20_25  and  C21_26
REMARK    7  A    between atoms: C21_26  and  C22_27
REMARK    8  A    between atoms: C22_27  and  C23_28
REMARK    9  A    between atoms: C23_28  and  O4_29
REMARK   10  A    between atoms: O4_29  and  C24_30
REMARK   11  A    between atoms: C27_33  and  C28_34
REMARK                            x       y       z     vdW  Elec       q    Type
REMARK                         _______ _______ _______ _____ _____    ______ ____
ROOT
ATOM      1  C2  UNL     1     -38.338  68.689 -24.879  0.00  0.00    +0.172 A 
ATOM      2  C3  UNL     1     -39.038  67.561 -25.338  0.00  0.00    +0.040 A 
ATOM      3  C4  UNL     1     -38.871  66.321 -24.719  0.00  0.00    +0.005 A 
ATOM      4  C5  UNL     1     -37.993  66.172 -23.632  0.00  0.00    +0.019 A 
ATOM      5  C18 UNL     1     -37.291  67.307 -23.180  0.00  0.00    +0.041 A 
ATOM      6  C19 UNL     1     -37.466  68.564 -23.789  0.00  0.00    +0.172 A 
ENDROOT
BRANCH   4   7
ATOM      7  C6  UNL     1     -37.788  64.861 -22.945  0.00  0.00    +0.086 C 
ATOM      8  N1  UNL     1     -38.771  64.253 -22.359  0.00  0.00    -0.171 NA
ATOM      9  N2  UNL     1     -38.337  63.042 -21.824  0.00  0.00    -0.222 N 
ATOM     10  C14 UNL     1     -37.082  62.869 -22.083  0.00  0.00    +0.257 C 
ATOM     11  O2  UNL     1     -36.370  61.733 -21.703  0.00  0.00    -0.270 OA
ATOM     12  C15 UNL     1     -36.513  64.038 -22.834  0.00  0.00    +0.110 C 
ATOM     13  C16 UNL     1     -35.987  63.572 -24.202  0.00  0.00    +0.015 C 
ATOM     14  C17 UNL     1     -35.432  64.717 -21.975  0.00  0.00    +0.015 C 
BRANCH   9  15
ATOM     15  C7  UNL     1     -39.239  62.120 -21.119  0.00  0.00    +0.108 C 
ATOM     16  C8  UNL     1     -39.054  62.275 -19.592  0.00  0.00    +0.024 C 
ATOM     17  C9  UNL     1     -39.599  61.093 -18.781  0.00  0.00    +0.002 C 
ATOM     18  C10 UNL     1     -41.097  60.831 -18.997  0.00  0.00    +0.000 C 
ATOM     19  C11 UNL     1     -41.378  60.140 -20.342  0.00  0.00    +0.000 C 
ATOM     20  C12 UNL     1     -41.597  61.107 -21.521  0.00  0.00    +0.002 C 
ATOM     21  C13 UNL     1     -40.705  62.362 -21.548  0.00  0.00    +0.024 C 
ENDBRANCH   9  15
ENDBRANCH   4   7
BRANCH   1  23
ATOM     22  C1  UNL     1     -38.555  70.178 -26.881  0.00  0.00    +0.253 C 
ATOM     23  O1  UNL     1     -38.485  69.951 -25.476  0.00  0.00    -0.468 OA
ENDBRANCH   1  23
BRANCH   6  24
ATOM     24  O3  UNL     1     -36.795  69.718 -23.346  0.00  0.00    -0.472 OA
BRANCH  24  25
ATOM     25  C20 UNL     1     -36.337  69.959 -22.015  0.00  0.00    +0.206 C 
BRANCH  25  26
ATOM     26  C21 UNL     1     -35.115  70.888 -22.023  0.00  0.00    +0.051 C 
BRANCH  26  27
ATOM     27  C22 UNL     1     -33.847  70.193 -21.504  0.00  0.00    +0.051 C 
BRANCH  27  28
ATOM     28  C23 UNL     1     -33.836  68.689 -21.805  0.00  0.00    +0.206 C 
BRANCH  28  29
ATOM     29  O4  UNL     1     -32.746  68.362 -22.666  0.00  0.00    -0.475 OA
BRANCH  29  30
ATOM     30  C24 UNL     1     -32.592  67.152 -23.363  0.00  0.00    +0.139 A 
ATOM     31  C25 UNL     1     -33.030  66.974 -24.689  0.00  0.00    +0.037 A 
ATOM     32  C26 UNL     1     -32.846  65.748 -25.336  0.00  0.00    +0.006 A 
ATOM     33  C27 UNL     1     -32.219  64.677 -24.675  0.00  0.00    +0.040 A 
ATOM     34  C29 UNL     1     -31.785  64.861 -23.351  0.00  0.00    +0.006 A 
ATOM     35  C30 UNL     1     -31.970  66.087 -22.706  0.00  0.00    +0.037 A 
BRANCH  33  36
ATOM     36  C28 UNL     1     -32.017  63.378 -25.364  0.00  0.00    +0.208 A 
ATOM     37  N3  UNL     1     -30.983  62.536 -25.153  0.00  0.00    -0.106 NA
ATOM     38  N4  UNL     1     -31.182  61.511 -25.965  0.00  0.00    -0.021 NA
ATOM     39  N5  UNL     1     -32.293  61.703 -26.654  0.00  0.00    -0.021 NA
ATOM     40  N6  UNL     1     -32.836  62.857 -26.304  0.00  0.00    -0.106 NA
ENDBRANCH  33  36
ENDBRANCH  29  30
ENDBRANCH  28  29
ENDBRANCH  27  28
ENDBRANCH  26  27
ENDBRANCH  25  26
ENDBRANCH  24  25
ENDBRANCH   6  24
TORSDOF 11
ENDMDL
MODEL 4
REMARK VINA RESULT:      -5.0      2.539      3.912
REMARK  Name = ./data/4wxx_site_bc02/pdb/l0c2.pdb
REMARK  11 active torsions:
REMARK  status: ('A' for Active; 'I' for Inactive)
REMARK    1  A    between atoms: O1_2  and  C2_3
REMARK    2  A    between atoms: C5_6  and  C6_7
REMARK    3  A    between atoms: N2_9  and  C7_10
REMARK    4  A    between atoms: C19_23  and  O3_24
REMARK    5  A    between atoms: O3_24  and  C20_25
REMARK    6  A    between atoms: C20_25  and  C21_26
REMARK    7  A    between atoms: C21_26  and  C22_27
REMARK    8  A    between atoms: C22_27  and  C23_28
REMARK    9  A    between atoms: C23_28  and  O4_29
REMARK   10  A    between atoms: O4_29  and  C24_30
REMARK   11  A    between atoms: C27_33  and  C28_34
REMARK                            x       y       z     vdW  Elec       q    Type
REMARK                         _______ _______ _______ _____ _____    ______ ____
ROOT
ATOM      1  C2  UNL     1     -38.713  70.281 -24.465  0.00  0.00    +0.172 A 
ATOM      2  C3  UNL     1     -39.520  69.244 -24.961  0.00  0.00    +0.040 A 
ATOM      3  C4  UNL     1     -39.189  67.909 -24.720  0.00  0.00    +0.005 A 
ATOM      4  C5  UNL     1     -38.038  67.575 -23.987  0.00  0.00    +0.019 A 
ATOM      5  C18 UNL     1     -37.231  68.621 -23.496  0.00  0.00    +0.041 A 
ATOM      6  C19 UNL     1     -37.567  69.969 -23.722  0.00  0.00    +0.172 A 
ENDROOT
BRANCH   4   7
ATOM      7  C6  UNL     1     -37.650  66.159 -23.709  0.00  0.00    +0.086 C 
ATOM      8  N1  UNL     1     -38.092  65.539 -22.661  0.00  0.00    -0.171 NA
ATOM      9  N2  UNL     1     -37.619  64.228 -22.642  0.00  0.00    -0.222 N 
ATOM     10  C14 UNL     1     -36.890  64.007 -23.687  0.00  0.00    +0.257 C 
ATOM     11  O2  UNL     1     -36.301  62.774 -23.964  0.00  0.00    -0.270 OA
ATOM     12  C15 UNL     1     -36.771  65.236 -24.541  0.00  0.00    +0.110 C 
ATOM     13  C16 UNL     1     -37.354  64.959 -25.937  0.00  0.00    +0.015 C 
ATOM     14  C17 UNL     1     -35.300  65.685 -24.582  0.00  0.00    +0.015 C 
BRANCH   9  15
ATOM     15  C7  UNL     1     -37.974  63.273 -21.583  0.00  0.00    +0.108 C 
ATOM     16  C8  UNL     1     -37.766  63.928 -20.199  0.00  0.00    +0.024 C 
ATOM     17  C9  UNL     1     -37.680  62.922 -19.045  0.00  0.00    +0.002 C 
ATOM     18  C10 UNL     1     -38.925  62.033 -18.904  0.00  0.00    +0.000 C 
ATOM     19  C11 UNL     1     -38.974  60.927 -19.971  0.00  0.00    +0.000 C 
ATOM     20  C12 UNL     1     -39.677  61.335 -21.279  0.00  0.00    +0.002 C 
ATOM     21  C13 UNL     1     -39.427  62.774 -21.768  0.00  0.00    +0.024 C 
ENDBRANCH   9  15
ENDBRANCH   4   7
BRANCH   1  23
ATOM     22  C1  UNL     1     -39.701  72.470 -23.756  0.00  0.00    +0.253 C 
ATOM     23  O1  UNL     1     -39.019  71.633 -24.686  0.00  0.00    -0.468 OA
ENDBRANCH   1  23
BRANCH   6  24
ATOM     24  O3  UNL     1     -36.792  71.034 -23.227  0.00  0.00    -0.472 OA
BRANCH  24  25
ATOM     25  C20 UNL     1     -36.271  71.142 -21.902  0.00  0.00    +0.206 C 
BRANCH  25  26
ATOM     26  C21 UNL     1     -34.865  71.758 -21.923  0.00  0.00    +0.051 C 
BRANCH  26  27
ATOM     27  C22 UNL     1     -34.420  72.158 -23.338  0.00  0.00    +0.051 C 
BRANCH  27  28
ATOM     28  C23 UNL     1     -33.291  71.268 -23.872  0.00  0.00    +0.206 C 
BRANCH  28  29
ATOM     29  O4  UNL     1     -33.765  69.939 -24.088  0.00  0.00    -0.475 OA
BRANCH  29  30
ATOM     30  C24 UNL     1     -33.285  68.788 -23.443  0.00  0.00    +0.139 A 
ATOM     31  C25 UNL     1     -33.596  68.476 -22.106  0.00  0.00    +0.037 A 
ATOM     32  C26 UNL     1     -33.094  67.312 -21.516  0.00  0.00    +0.006 A 
ATOM     33  C27 UNL     1     -32.275  66.434 -22.249  0.00  0.00    +0.040 A 
ATOM     34  C29 UNL     1     -31.968  66.751 -23.583  0.00  0.00    +0.006 A 
ATOM     35  C30 UNL     1     -32.470  67.916 -24.170  0.00  0.00    +0.037 A 
BRANCH  33  36
ATOM     36  C28 UNL     1     -31.749  65.195 -21.625  0.00  0.00    +0.208 A 
ATOM     37  N3  UNL     1     -30.468  64.772 -21.690  0.00  0.00    -0.106 NA
ATOM     38  N4  UNL     1     -30.428  63.637 -21.013  0.00  0.00    -0.021 NA
ATOM     39  N5  UNL     1     -31.632  63.362 -20.542  0.00  0.00    -0.021 NA
ATOM     40  N6  UNL     1     -32.477  64.312 -20.907  0.00  0.00    -0.106 NA
ENDBRANCH  33  36
ENDBRANCH  29  30
ENDBRANCH  28  29
ENDBRANCH  27  28
ENDBRANCH  26  27
ENDBRANCH  25  26
ENDBRANCH  24  25
ENDBRANCH   6  24
TORSDOF 11
ENDMDL
MODEL 5
REMARK VINA RESULT:      -4.9      2.791      7.808
REMARK  Name = ./data/4wxx_site_bc02/pdb/l0c2.pdb
REMARK  11 active torsions:
REMARK  status: ('A' for Active; 'I' for Inactive)
REMARK    1  A    between atoms: O1_2  and  C2_3
REMARK    2  A    between atoms: C5_6  and  C6_7
REMARK    3  A    between atoms: N2_9  and  C7_10
REMARK    4  A    between atoms: C19_23  and  O3_24
REMARK    5  A    between atoms: O3_24  and  C20_25
REMARK    6  A    between atoms: C20_25  and  C21_26
REMARK    7  A    between atoms: C21_26  and  C22_27
REMARK    8  A    between atoms: C22_27  and  C23_28
REMARK    9  A    between atoms: C23_28  and  O4_29
REMARK   10  A    between atoms: O4_29  and  C24_30
REMARK   11  A    between atoms: C27_33  and  C28_34
REMARK                            x       y       z     vdW  Elec       q    Type
REMARK                         _______ _______ _______ _____ _____    ______ ____
ROOT
ATOM      1  C2  UNL     1     -37.189  62.790 -20.493  0.00  0.00    +0.172 A 
ATOM      2  C3  UNL     1     -36.335  63.565 -19.690  0.00  0.00    +0.040 A 
ATOM      3  C4  UNL     1     -35.424  64.450 -20.270  0.00  0.00    +0.005 A 
ATOM      4  C5  UNL     1     -35.334  64.577 -21.667  0.00  0.00    +0.019 A 
ATOM      5  C18 UNL     1     -36.190  63.793 -22.465  0.00  0.00    +0.041 A 
ATOM      6  C19 UNL     1     -37.123  62.910 -21.888  0.00  0.00    +0.172 A 
ENDROOT
BRANCH   4   7
ATOM      7  C6  UNL     1     -34.371  65.512 -22.323  0.00  0.00    +0.086 C 
ATOM      8  N1  UNL     1     -34.429  66.788 -22.109  0.00  0.00    -0.171 NA
ATOM      9  N2  UNL     1     -33.411  67.440 -22.803  0.00  0.00    -0.222 N 
ATOM     10  C14 UNL     1     -32.694  66.577 -23.447  0.00  0.00    +0.257 C 
ATOM     11  O2  UNL     1     -31.581  66.923 -24.212  0.00  0.00    -0.270 OA
ATOM     12  C15 UNL     1     -33.217  65.182 -23.260  0.00  0.00    +0.110 C 
ATOM     13  C16 UNL     1     -32.143  64.308 -22.593  0.00  0.00    +0.015 C 
ATOM     14  C17 UNL     1     -33.686  64.628 -24.617  0.00  0.00    +0.015 C 
BRANCH   9  15
ATOM     15  C7  UNL     1     -33.209  68.894 -22.734  0.00  0.00    +0.108 C 
ATOM     16  C8  UNL     1     -33.953  69.580 -23.901  0.00  0.00    +0.024 C 
ATOM     17  C9  UNL     1     -33.471  71.008 -24.188  0.00  0.00    +0.002 C 
ATOM     18  C10 UNL     1     -33.605  71.959 -22.988  0.00  0.00    +0.000 C 
ATOM     19  C11 UNL     1     -32.516  71.718 -21.930  0.00  0.00    +0.000 C 
ATOM     20  C12 UNL     1     -32.885  70.669 -20.864  0.00  0.00    +0.002 C 
ATOM     21  C13 UNL     1     -33.669  69.439 -21.361  0.00  0.00    +0.024 C 
ENDBRANCH   9  15
ENDBRANCH   4   7
BRANCH   1  23
ATOM     22  C1  UNL     1     -39.127  62.251 -19.002  0.00  0.00    +0.253 C 
ATOM     23  O1  UNL     1     -38.119  61.894 -19.943  0.00  0.00    -0.468 OA
ENDBRANCH   1  23
BRANCH   6  24
ATOM     24  O3  UNL     1     -38.003  62.131 -22.659  0.00  0.00    -0.472 OA
BRANCH  24  25
ATOM     25  C20 UNL     1     -37.623  61.148 -23.623  0.00  0.00    +0.206 C 
BRANCH  25  26
ATOM     26  C21 UNL     1     -37.298  61.809 -24.970  0.00  0.00    +0.051 C 
BRANCH  26  27
ATOM     27  C22 UNL     1     -38.519  61.877 -25.900  0.00  0.00    +0.051 C 
BRANCH  27  28
ATOM     28  C23 UNL     1     -38.534  63.149 -26.757  0.00  0.00    +0.206 C 
BRANCH  28  29
ATOM     29  O4  UNL     1     -37.378  63.942 -26.490  0.00  0.00    -0.475 OA
BRANCH  29  30
ATOM     30  C24 UNL     1     -37.361  65.138 -25.754  0.00  0.00    +0.139 A 
ATOM     31  C25 UNL     1     -36.335  66.094 -25.873  0.00  0.00    +0.037 A 
ATOM     32  C26 UNL     1     -36.373  67.270 -25.118  0.00  0.00    +0.006 A 
ATOM     33  C27 UNL     1     -37.437  67.518 -24.232  0.00  0.00    +0.040 A 
ATOM     34  C29 UNL     1     -38.458  66.560 -24.117  0.00  0.00    +0.006 A 
ATOM     35  C30 UNL     1     -38.417  65.384 -24.872  0.00  0.00    +0.037 A 
BRANCH  33  36
ATOM     36  C28 UNL     1     -37.481  68.771 -23.437  0.00  0.00    +0.208 A 
ATOM     37  N3  UNL     1     -37.196  68.869 -22.121  0.00  0.00    -0.106 NA
ATOM     38  N4  UNL     1     -37.361  70.144 -21.811  0.00  0.00    -0.021 NA
ATOM     39  N5  UNL     1     -37.732  70.815 -22.887  0.00  0.00    -0.021 NA
ATOM     40  N6  UNL     1     -37.817  69.988 -23.916  0.00  0.00    -0.106 NA
ENDBRANCH  33  36
ENDBRANCH  29  30
ENDBRANCH  28  29
ENDBRANCH  27  28
ENDBRANCH  26  27
ENDBRANCH  25  26
ENDBRANCH  24  25
ENDBRANCH   6  24
TORSDOF 11
ENDMDL
