MODEL 1
REMARK VINA RESULT:      -6.8      0.000      0.000
REMARK  Name = ./data/4wxx_site_bc02/pdb/l1c1.pdb
REMARK  11 active torsions:
REMARK  status: ('A' for Active; 'I' for Inactive)
REMARK    1  A    between atoms: O1_2  and  C2_3
REMARK    2  A    between atoms: C5_6  and  C6_7
REMARK    3  A    between atoms: N2_9  and  C7_10
REMARK    4  A    between atoms: C22_26  and  O3_27
REMARK    5  A    between atoms: O3_27  and  C23_28
REMARK    6  A    between atoms: C23_28  and  C24_29
REMARK    7  A    between atoms: C24_29  and  C25_30
REMARK    8  A    between atoms: C25_30  and  C26_31
REMARK    9  A    between atoms: C26_31  and  O4_32
REMARK   10  A    between atoms: O4_32  and  C27_33
REMARK   11  A    between atoms: C30_36  and  C31_37
REMARK                            x       y       z     vdW  Elec       q    Type
REMARK                         _______ _______ _______ _____ _____    ______ ____
ROOT
ATOM      1  C2  UNL     1     -37.323  63.281 -20.050  0.00  0.00    +0.172 A 
ATOM      2  C3  UNL     1     -36.500  64.307 -19.556  0.00  0.00    +0.040 A 
ATOM      3  C4  UNL     1     -35.260  64.566 -20.140  0.00  0.00    +0.005 A 
ATOM      4  C5  UNL     1     -34.813  63.816 -21.244  0.00  0.00    +0.018 A 
ATOM      5  C21 UNL     1     -35.650  62.799 -21.745  0.00  0.00    +0.041 A 
ATOM      6  C22 UNL     1     -36.893  62.517 -21.144  0.00  0.00    +0.172 A 
ENDROOT
BRANCH   4   7
ATOM      7  C6  UNL     1     -33.478  64.059 -21.876  0.00  0.00    +0.079 C 
ATOM      8  N1  UNL     1     -33.444  64.379 -23.133  0.00  0.00    -0.172 NA
ATOM      9  N2  UNL     1     -32.273  64.592 -23.885  0.00  0.00    -0.222 N 
ATOM     10  C14 UNL     1     -31.093  64.638 -23.312  0.00  0.00    +0.253 C 
ATOM     11  O2  UNL     1     -29.966  64.963 -24.073  0.00  0.00    -0.271 OA
ATOM     12  C15 UNL     1     -30.926  64.412 -21.818  0.00  0.00    +0.091 C 
ATOM     13  C16 UNL     1     -29.622  63.592 -21.544  0.00  0.00    +0.035 C 
ATOM     14  C17 UNL     1     -29.692  62.743 -20.302  0.00  0.00    -0.030 C 
ATOM     15  C18 UNL     1     -30.812  62.071 -20.020  0.00  0.00    -0.030 C 
ATOM     16  C19 UNL     1     -32.026  62.285 -20.873  0.00  0.00    +0.032 C 
ATOM     17  C20 UNL     1     -32.190  63.797 -21.129  0.00  0.00    +0.056 C 
BRANCH   9  18
ATOM     18  C7  UNL     1     -32.470  64.827 -25.333  0.00  0.00    +0.108 C 
ATOM     19  C8  UNL     1     -33.488  63.820 -25.915  0.00  0.00    +0.024 C 
ATOM     20  C9  UNL     1     -33.402  63.673 -27.440  0.00  0.00    +0.002 C 
ATOM     21  C10 UNL     1     -33.636  64.987 -28.200  0.00  0.00    +0.000 C 
ATOM     22  C11 UNL     1     -32.405  65.911 -28.162  0.00  0.00    +0.000 C 
ATOM     23  C12 UNL     1     -32.342  66.855 -26.947  0.00  0.00    +0.002 C 
ATOM     24  C13 UNL     1     -32.873  66.296 -25.614  0.00  0.00    +0.024 C 
ENDBRANCH   9  18
ENDBRANCH   4   7
BRANCH   1  26
ATOM     25  C1  UNL     1     -38.841  61.860 -18.656  0.00  0.00    +0.253 C 
ATOM     26  O1  UNL     1     -38.575  62.988 -19.482  0.00  0.00    -0.468 OA
ENDBRANCH   1  26
BRANCH   6  27
ATOM     27  O3  UNL     1     -37.724  61.482 -21.600  0.00  0.00    -0.472 OA
BRANCH  27  28
ATOM     28  C23 UNL     1     -38.738  61.632 -22.591  0.00  0.00    +0.206 C 
BRANCH  28  29
ATOM     29  C24 UNL     1     -38.340  60.891 -23.868  0.00  0.00    +0.051 C 
BRANCH  29  30
ATOM     30  C25 UNL     1     -37.378  61.731 -24.722  0.00  0.00    +0.051 C 
BRANCH  30  31
ATOM     31  C26 UNL     1     -38.123  62.521 -25.797  0.00  0.00    +0.206 C 
BRANCH  31  32
ATOM     32  O4  UNL     1     -38.648  63.728 -25.251  0.00  0.00    -0.475 OA
BRANCH  32  33
ATOM     33  C27 UNL     1     -37.867  64.719 -24.635  0.00  0.00    +0.139 A 
ATOM     34  C28 UNL     1     -36.774  65.327 -25.281  0.00  0.00    +0.037 A 
ATOM     35  C29 UNL     1     -36.027  66.312 -24.630  0.00  0.00    +0.006 A 
ATOM     36  C30 UNL     1     -36.358  66.718 -23.324  0.00  0.00    +0.040 A 
ATOM     37  C32 UNL     1     -37.451  66.105 -22.683  0.00  0.00    +0.006 A 
ATOM     38  C33 UNL     1     -38.192  65.113 -23.334  0.00  0.00    +0.037 A 
BRANCH  36  39
ATOM     39  C31 UNL     1     -35.571  67.778 -22.639  0.00  0.00    +0.208 A 
ATOM     40  N3  UNL     1     -35.983  69.050 -22.437  0.00  0.00    -0.106 NA
ATOM     41  N4  UNL     1     -34.999  69.649 -21.788  0.00  0.00    -0.021 NA
ATOM     42  N5  UNL     1     -34.012  68.793 -21.592  0.00  0.00    -0.021 NA
ATOM     43  N6  UNL     1     -34.337  67.619 -22.109  0.00  0.00    -0.106 NA
ENDBRANCH  36  39
ENDBRANCH  32  33
ENDBRANCH  31  32
ENDBRANCH  30  31
ENDBRANCH  29  30
ENDBRANCH  28  29
ENDBRANCH  27  28
ENDBRANCH   6  27
TORSDOF 11
ENDMDL
MODEL 2
REMARK VINA RESULT:      -6.6      3.141      5.734
REMARK  Name = ./data/4wxx_site_bc02/pdb/l1c1.pdb
REMARK  11 active torsions:
REMARK  status: ('A' for Active; 'I' for Inactive)
REMARK    1  A    between atoms: O1_2  and  C2_3
REMARK    2  A    between atoms: C5_6  and  C6_7
REMARK    3  A    between atoms: N2_9  and  C7_10
REMARK    4  A    between atoms: C22_26  and  O3_27
REMARK    5  A    between atoms: O3_27  and  C23_28
REMARK    6  A    between atoms: C23_28  and  C24_29
REMARK    7  A    between atoms: C24_29  and  C25_30
REMARK    8  A    between atoms: C25_30  and  C26_31
REMARK    9  A    between atoms: C26_31  and  O4_32
REMARK   10  A    between atoms: O4_32  and  C27_33
REMARK   11  A    between atoms: C30_36  and  C31_37
REMARK                            x       y       z     vdW  Elec       q    Type
REMARK                         _______ _______ _______ _____ _____    ______ ____
ROOT
ATOM      1  C2  UNL     1     -33.090  69.411 -22.494  0.00  0.00    +0.172 A 
ATOM      2  C3  UNL     1     -32.831  68.422 -21.530  0.00  0.00    +0.040 A 
ATOM      3  C4  UNL     1     -32.392  67.154 -21.914  0.00  0.00    +0.005 A 
ATOM      4  C5  UNL     1     -32.186  66.843 -23.270  0.00  0.00    +0.018 A 
ATOM      5  C21 UNL     1     -32.432  67.845 -24.231  0.00  0.00    +0.041 A 
ATOM      6  C22 UNL     1     -32.898  69.119 -23.852  0.00  0.00    +0.172 A 
ENDROOT
BRANCH   4   7
ATOM      7  C6  UNL     1     -31.736  65.485 -23.710  0.00  0.00    +0.079 C 
ATOM      8  N1  UNL     1     -32.481  64.835 -24.550  0.00  0.00    -0.172 NA
ATOM      9  N2  UNL     1     -32.225  63.533 -25.022  0.00  0.00    -0.222 N 
ATOM     10  C14 UNL     1     -31.093  62.922 -24.760  0.00  0.00    +0.253 C 
ATOM     11  O2  UNL     1     -30.828  61.677 -25.338  0.00  0.00    -0.271 OA
ATOM     12  C15 UNL     1     -30.025  63.566 -23.891  0.00  0.00    +0.091 C 
ATOM     13  C16 UNL     1     -29.355  62.487 -22.978  0.00  0.00    +0.035 C 
ATOM     14  C17 UNL     1     -28.841  63.033 -21.673  0.00  0.00    -0.030 C 
ATOM     15  C18 UNL     1     -29.570  63.924 -20.994  0.00  0.00    -0.030 C 
ATOM     16  C19 UNL     1     -30.822  64.468 -21.615  0.00  0.00    +0.032 C 
ATOM     17  C20 UNL     1     -30.533  64.812 -23.090  0.00  0.00    +0.056 C 
BRANCH   9  18
ATOM     18  C7  UNL     1     -33.275  62.940 -25.880  0.00  0.00    +0.108 C 
ATOM     19  C8  UNL     1     -34.670  63.121 -25.239  0.00  0.00    +0.024 C 
ATOM     20  C9  UNL     1     -35.728  62.156 -25.790  0.00  0.00    +0.002 C 
ATOM     21  C10 UNL     1     -35.947  62.283 -27.305  0.00  0.00    +0.000 C 
ATOM     22  C11 UNL     1     -34.828  61.608 -28.116  0.00  0.00    +0.000 C 
ATOM     23  C12 UNL     1     -33.613  62.507 -28.416  0.00  0.00    +0.002 C 
ATOM     24  C13 UNL     1     -33.213  63.511 -27.319  0.00  0.00    +0.024 C 
ENDBRANCH   9  18
ENDBRANCH   4   7
BRANCH   1  26
ATOM     25  C1  UNL     1     -33.757  71.137 -20.809  0.00  0.00    +0.253 C 
ATOM     26  O1  UNL     1     -33.539  70.696 -22.145  0.00  0.00    -0.468 OA
ENDBRANCH   1  26
BRANCH   6  27
ATOM     27  O3  UNL     1     -33.190  70.117 -24.794  0.00  0.00    -0.472 OA
BRANCH  27  28
ATOM     28  C23 UNL     1     -34.422  70.227 -25.505  0.00  0.00    +0.206 C 
BRANCH  28  29
ATOM     29  C24 UNL     1     -35.378  69.113 -25.075  0.00  0.00    +0.051 C 
BRANCH  29  30
ATOM     30  C25 UNL     1     -36.422  69.631 -24.074  0.00  0.00    +0.051 C 
BRANCH  30  31
ATOM     31  C26 UNL     1     -36.660  68.634 -22.941  0.00  0.00    +0.206 C 
BRANCH  31  32
ATOM     32  O4  UNL     1     -35.861  67.468 -23.131  0.00  0.00    -0.475 OA
BRANCH  32  33
ATOM     33  C27 UNL     1     -36.251  66.175 -22.745  0.00  0.00    +0.139 A 
ATOM     34  C28 UNL     1     -35.348  65.251 -22.185  0.00  0.00    +0.037 A 
ATOM     35  C29 UNL     1     -35.783  63.978 -21.811  0.00  0.00    +0.006 A 
ATOM     36  C30 UNL     1     -37.128  63.599 -21.980  0.00  0.00    +0.040 A 
ATOM     37  C32 UNL     1     -38.024  64.527 -22.541  0.00  0.00    +0.006 A 
ATOM     38  C33 UNL     1     -37.585  65.799 -22.923  0.00  0.00    +0.037 A 
BRANCH  36  39
ATOM     39  C31 UNL     1     -37.590  62.247 -21.566  0.00  0.00    +0.208 A 
ATOM     40  N3  UNL     1     -37.261  61.088 -22.179  0.00  0.00    -0.106 NA
ATOM     41  N4  UNL     1     -37.866  60.133 -21.493  0.00  0.00    -0.021 NA
ATOM     42  N5  UNL     1     -38.546  60.668 -20.495  0.00  0.00    -0.021 NA
ATOM     43  N6  UNL     1     -38.395  61.983 -20.512  0.00  0.00    -0.106 NA
ENDBRANCH  36  39
ENDBRANCH  32  33
ENDBRANCH  31  32
ENDBRANCH  30  31
ENDBRANCH  29  30
ENDBRANCH  28  29
ENDBRANCH  27  28
ENDBRANCH   6  27
TORSDOF 11
ENDMDL
MODEL 3
REMARK VINA RESULT:      -6.2      3.181      5.231
REMARK  Name = ./data/4wxx_site_bc02/pdb/l1c1.pdb
REMARK  11 active torsions:
REMARK  status: ('A' for Active; 'I' for Inactive)
REMARK    1  A    between atoms: O1_2  and  C2_3
REMARK    2  A    between atoms: C5_6  and  C6_7
REMARK    3  A    between atoms: N2_9  and  C7_10
REMARK    4  A    between atoms: C22_26  and  O3_27
REMARK    5  A    between atoms: O3_27  and  C23_28
REMARK    6  A    between atoms: C23_28  and  C24_29
REMARK    7  A    between atoms: C24_29  and  C25_30
REMARK    8  A    between atoms: C25_30  and  C26_31
REMARK    9  A    between atoms: C26_31  and  O4_32
REMARK   10  A    between atoms: O4_32  and  C27_33
REMARK   11  A    between atoms: C30_36  and  C31_37
REMARK                            x       y       z     vdW  Elec       q    Type
REMARK                         _______ _______ _______ _____ _____    ______ ____
ROOT
ATOM      1  C2  UNL     1     -35.059  69.551 -22.271  0.00  0.00    +0.172 A 
ATOM      2  C3  UNL     1     -33.685  69.511 -21.977  0.00  0.00    +0.040 A 
ATOM      3  C4  UNL     1     -32.904  68.426 -22.377  0.00  0.00    +0.005 A 
ATOM      4  C5  UNL     1     -33.471  67.356 -23.095  0.00  0.00    +0.018 A 
ATOM      5  C21 UNL     1     -34.846  67.410 -23.402  0.00  0.00    +0.041 A 
ATOM      6  C22 UNL     1     -35.644  68.492 -22.979  0.00  0.00    +0.172 A 
ENDROOT
BRANCH   4   7
ATOM      7  C6  UNL     1     -32.661  66.171 -23.518  0.00  0.00    +0.079 C 
ATOM      8  N1  UNL     1     -33.194  65.329 -24.349  0.00  0.00    -0.172 NA
ATOM      9  N2  UNL     1     -32.586  64.144 -24.805  0.00  0.00    -0.222 N 
ATOM     10  C14 UNL     1     -31.330  63.874 -24.536  0.00  0.00    +0.253 C 
ATOM     11  O2  UNL     1     -30.728  62.745 -25.099  0.00  0.00    -0.271 OA
ATOM     12  C15 UNL     1     -30.484  64.800 -23.677  0.00  0.00    +0.091 C 
ATOM     13  C16 UNL     1     -29.543  63.961 -22.752  0.00  0.00    +0.035 C 
ATOM     14  C17 UNL     1     -29.204  64.644 -21.454  0.00  0.00    -0.030 C 
ATOM     15  C18 UNL     1     -30.153  65.307 -20.785  0.00  0.00    -0.030 C 
ATOM     16  C19 UNL     1     -31.505  65.474 -21.411  0.00  0.00    +0.032 C 
ATOM     17  C20 UNL     1     -31.319  65.866 -22.891  0.00  0.00    +0.056 C 
BRANCH   9  18
ATOM     18  C7  UNL     1     -33.429  63.272 -25.654  0.00  0.00    +0.108 C 
ATOM     19  C8  UNL     1     -34.890  63.266 -25.148  0.00  0.00    +0.024 C 
ATOM     20  C9  UNL     1     -35.705  62.065 -25.646  0.00  0.00    +0.002 C 
ATOM     21  C10 UNL     1     -35.794  61.973 -27.177  0.00  0.00    +0.000 C 
ATOM     22  C11 UNL     1     -34.501  61.427 -27.805  0.00  0.00    +0.000 C 
ATOM     23  C12 UNL     1     -33.437  62.494 -28.129  0.00  0.00    +0.002 C 
ATOM     24  C13 UNL     1     -33.327  63.674 -27.146  0.00  0.00    +0.024 C 
ENDBRANCH   9  18
ENDBRANCH   4   7
BRANCH   1  26
ATOM     25  C1  UNL     1     -35.595  71.992 -22.149  0.00  0.00    +0.253 C 
ATOM     26  O1  UNL     1     -35.876  70.624 -21.878  0.00  0.00    -0.468 OA
ENDBRANCH   1  26
BRANCH   6  27
ATOM     27  O3  UNL     1     -37.023  68.547 -23.236  0.00  0.00    -0.472 OA
BRANCH  27  28
ATOM     28  C23 UNL     1     -37.603  68.642 -24.535  0.00  0.00    +0.206 C 
BRANCH  28  29
ATOM     29  C24 UNL     1     -38.987  67.991 -24.542  0.00  0.00    +0.051 C 
BRANCH  29  30
ATOM     30  C25 UNL     1     -39.077  66.885 -25.605  0.00  0.00    +0.051 C 
BRANCH  30  31
ATOM     31  C26 UNL     1     -37.852  65.973 -25.575  0.00  0.00    +0.206 C 
BRANCH  31  32
ATOM     32  O4  UNL     1     -38.249  64.615 -25.395  0.00  0.00    -0.475 OA
BRANCH  32  33
ATOM     33  C27 UNL     1     -38.322  63.975 -24.148  0.00  0.00    +0.139 A 
ATOM     34  C28 UNL     1     -38.848  62.678 -23.995  0.00  0.00    +0.037 A 
ATOM     35  C29 UNL     1     -38.895  62.078 -22.734  0.00  0.00    +0.006 A 
ATOM     36  C30 UNL     1     -38.413  62.756 -21.598  0.00  0.00    +0.040 A 
ATOM     37  C32 UNL     1     -37.890  64.052 -21.758  0.00  0.00    +0.006 A 
ATOM     38  C33 UNL     1     -37.851  64.654 -23.020  0.00  0.00    +0.037 A 
BRANCH  36  39
ATOM     39  C31 UNL     1     -38.451  62.109 -20.259  0.00  0.00    +0.208 A 
ATOM     40  N3  UNL     1     -37.607  62.379 -19.238  0.00  0.00    -0.106 NA
ATOM     41  N4  UNL     1     -37.993  61.604 -18.238  0.00  0.00    -0.021 NA
ATOM     42  N5  UNL     1     -39.030  60.878 -18.615  0.00  0.00    -0.021 NA
ATOM     43  N6  UNL     1     -39.341  61.169 -19.868  0.00  0.00    -0.106 NA
ENDBRANCH  36  39
ENDBRANCH  32  33
ENDBRANCH  31  32
ENDBRANCH  30  31
ENDBRANCH  29  30
ENDBRANCH  28  29
ENDBRANCH  27  28
ENDBRANCH   6  27
TORSDOF 11
ENDMDL
MODEL 4
REMARK VINA RESULT:      -6.0      1.917      4.124
REMARK  Name = ./data/4wxx_site_bc02/pdb/l1c1.pdb
REMARK  11 active torsions:
REMARK  status: ('A' for Active; 'I' for Inactive)
REMARK    1  A    between atoms: O1_2  and  C2_3
REMARK    2  A    between atoms: C5_6  and  C6_7
REMARK    3  A    between atoms: N2_9  and  C7_10
REMARK    4  A    between atoms: C22_26  and  O3_27
REMARK    5  A    between atoms: O3_27  and  C23_28
REMARK    6  A    between atoms: C23_28  and  C24_29
REMARK    7  A    between atoms: C24_29  and  C25_30
REMARK    8  A    between atoms: C25_30  and  C26_31
REMARK    9  A    between atoms: C26_31  and  O4_32
REMARK   10  A    between atoms: O4_32  and  C27_33
REMARK   11  A    between atoms: C30_36  and  C31_37
REMARK                            x       y       z     vdW  Elec       q    Type
REMARK                         _______ _______ _______ _____ _____    ______ ____
ROOT
ATOM      1  C2  UNL     1     -38.088  62.006 -19.329  0.00  0.00    +0.172 A 
ATOM      2  C3  UNL     1     -37.373  62.872 -18.483  0.00  0.00    +0.040 A 
ATOM      3  C4  UNL     1     -36.542  63.858 -19.015  0.00  0.00    +0.005 A 
ATOM      4  C5  UNL     1     -36.412  64.017 -20.407  0.00  0.00    +0.018 A 
ATOM      5  C21 UNL     1     -37.144  63.157 -21.250  0.00  0.00    +0.041 A 
ATOM      6  C22 UNL     1     -37.966  62.143 -20.719  0.00  0.00    +0.172 A 
ENDROOT
BRANCH   4   7
ATOM      7  C6  UNL     1     -35.512  65.053 -21.003  0.00  0.00    +0.079 C 
ATOM      8  N1  UNL     1     -36.055  66.035 -21.656  0.00  0.00    -0.172 NA
ATOM      9  N2  UNL     1     -35.349  67.059 -22.315  0.00  0.00    -0.222 N 
ATOM     10  C14 UNL     1     -34.050  67.189 -22.181  0.00  0.00    +0.253 C 
ATOM     11  O2  UNL     1     -33.400  68.283 -22.759  0.00  0.00    -0.271 OA
ATOM     12  C15 UNL     1     -33.235  66.210 -21.351  0.00  0.00    +0.091 C 
ATOM     13  C16 UNL     1     -31.860  65.935 -22.044  0.00  0.00    +0.035 C 
ATOM     14  C17 UNL     1     -31.300  64.568 -21.755  0.00  0.00    -0.030 C 
ATOM     15  C18 UNL     1     -32.112  63.507 -21.746  0.00  0.00    -0.030 C 
ATOM     16  C19 UNL     1     -33.589  63.717 -21.886  0.00  0.00    +0.032 C 
ATOM     17  C20 UNL     1     -34.008  64.899 -20.987  0.00  0.00    +0.056 C 
BRANCH   9  18
ATOM     18  C7  UNL     1     -36.172  68.007 -23.101  0.00  0.00    +0.108 C 
ATOM     19  C8  UNL     1     -36.141  67.640 -24.602  0.00  0.00    +0.024 C 
ATOM     20  C9  UNL     1     -36.551  68.796 -25.524  0.00  0.00    +0.002 C 
ATOM     21  C10 UNL     1     -37.967  69.326 -25.255  0.00  0.00    +0.000 C 
ATOM     22  C11 UNL     1     -38.027  70.225 -24.007  0.00  0.00    +0.000 C 
ATOM     23  C12 UNL     1     -38.268  69.477 -22.682  0.00  0.00    +0.002 C 
ATOM     24  C13 UNL     1     -37.616  68.089 -22.548  0.00  0.00    +0.024 C 
ENDBRANCH   9  18
ENDBRANCH   4   7
BRANCH   1  26
ATOM     25  C1  UNL     1     -40.331  61.140 -18.635  0.00  0.00    +0.253 C 
ATOM     26  O1  UNL     1     -38.928  60.997 -18.828  0.00  0.00    -0.468 OA
ENDBRANCH   1  26
BRANCH   6  27
ATOM     27  O3  UNL     1     -38.670  61.247 -21.539  0.00  0.00    -0.472 OA
BRANCH  27  28
ATOM     28  C23 UNL     1     -39.970  61.488 -22.073  0.00  0.00    +0.206 C 
BRANCH  28  29
ATOM     29  C24 UNL     1     -40.356  60.369 -23.042  0.00  0.00    +0.051 C 
BRANCH  29  30
ATOM     30  C25 UNL     1     -39.166  59.961 -23.924  0.00  0.00    +0.051 C 
BRANCH  30  31
ATOM     31  C26 UNL     1     -39.215  60.647 -25.289  0.00  0.00    +0.206 C 
BRANCH  31  32
ATOM     32  O4  UNL     1     -38.915  62.035 -25.157  0.00  0.00    -0.475 OA
BRANCH  32  33
ATOM     33  C27 UNL     1     -37.617  62.568 -25.209  0.00  0.00    +0.139 A 
ATOM     34  C28 UNL     1     -37.298  63.829 -24.671  0.00  0.00    +0.037 A 
ATOM     35  C29 UNL     1     -35.990  64.316 -24.742  0.00  0.00    +0.006 A 
ATOM     36  C30 UNL     1     -34.971  63.555 -25.344  0.00  0.00    +0.040 A 
ATOM     37  C32 UNL     1     -35.298  62.296 -25.881  0.00  0.00    +0.006 A 
ATOM     38  C33 UNL     1     -36.609  61.813 -25.816  0.00  0.00    +0.037 A 
BRANCH  36  39
ATOM     39  C31 UNL     1     -33.577  64.070 -25.404  0.00  0.00    +0.208 A 
ATOM     40  N3  UNL     1     -32.474  63.315 -25.602  0.00  0.00    -0.106 NA
ATOM     41  N4  UNL     1     -31.455  64.158 -25.600  0.00  0.00    -0.021 NA
ATOM     42  N5  UNL     1     -31.899  65.388 -25.408  0.00  0.00    -0.021 NA
ATOM     43  N6  UNL     1     -33.216  65.368 -25.283  0.00  0.00    -0.106 NA
ENDBRANCH  36  39
ENDBRANCH  32  33
ENDBRANCH  31  32
ENDBRANCH  30  31
ENDBRANCH  29  30
ENDBRANCH  28  29
ENDBRANCH  27  28
ENDBRANCH   6  27
TORSDOF 11
ENDMDL
MODEL 5
REMARK VINA RESULT:      -5.5      2.751      6.133
REMARK  Name = ./data/4wxx_site_bc02/pdb/l1c1.pdb
REMARK  11 active torsions:
REMARK  status: ('A' for Active; 'I' for Inactive)
REMARK    1  A    between atoms: O1_2  and  C2_3
REMARK    2  A    between atoms: C5_6  and  C6_7
REMARK    3  A    between atoms: N2_9  and  C7_10
REMARK    4  A    between atoms: C22_26  and  O3_27
REMARK    5  A    between atoms: O3_27  and  C23_28
REMARK    6  A    between atoms: C23_28  and  C24_29
REMARK    7  A    between atoms: C24_29  and  C25_30
REMARK    8  A    between atoms: C25_30  and  C26_31
REMARK    9  A    between atoms: C26_31  and  O4_32
REMARK   10  A    between atoms: O4_32  and  C27_33
REMARK   11  A    between atoms: C30_36  and  C31_37
REMARK                            x       y       z     vdW  Elec       q    Type
REMARK                         _______ _______ _______ _____ _____    ______ ____
ROOT
ATOM      1  C2  UNL     1     -38.118  63.179 -20.771  0.00  0.00    +0.172 A 
ATOM      2  C3  UNL     1     -37.606  64.348 -20.181  0.00  0.00    +0.040 A 
ATOM      3  C4  UNL     1     -37.268  65.451 -20.966  0.00  0.00    +0.005 A 
ATOM      4  C5  UNL     1     -37.444  65.423 -22.362  0.00  0.00    +0.018 A 
ATOM      5  C21 UNL     1     -37.973  64.255 -22.946  0.00  0.00    +0.041 A 
ATOM      6  C22 UNL     1     -38.294  63.129 -22.161  0.00  0.00    +0.172 A 
ENDROOT
BRANCH   4   7
ATOM      7  C6  UNL     1     -37.071  66.584 -23.228  0.00  0.00    +0.079 C 
ATOM      8  N1  UNL     1     -36.217  67.445 -22.766  0.00  0.00    -0.172 NA
ATOM      9  N2  UNL     1     -35.800  68.612 -23.433  0.00  0.00    -0.222 N 
ATOM     10  C14 UNL     1     -36.136  68.843 -24.681  0.00  0.00    +0.253 C 
ATOM     11  O2  UNL     1     -35.612  69.956 -25.345  0.00  0.00    -0.271 OA
ATOM     12  C15 UNL     1     -37.034  67.889 -25.451  0.00  0.00    +0.091 C 
ATOM     13  C16 UNL     1     -38.012  68.696 -26.367  0.00  0.00    +0.035 C 
ATOM     14  C17 UNL     1     -39.323  67.998 -26.616  0.00  0.00    -0.030 C 
ATOM     15  C18 UNL     1     -39.937  67.363 -25.613  0.00  0.00    -0.030 C 
ATOM     16  C19 UNL     1     -39.240  67.239 -24.292  0.00  0.00    +0.032 C 
ATOM     17  C20 UNL     1     -37.769  66.846 -24.544  0.00  0.00    +0.056 C 
BRANCH   9  18
ATOM     18  C7  UNL     1     -34.912  69.513 -22.663  0.00  0.00    +0.108 C 
ATOM     19  C8  UNL     1     -35.738  70.583 -21.914  0.00  0.00    +0.024 C 
ATOM     20  C9  UNL     1     -34.917  71.809 -21.494  0.00  0.00    +0.002 C 
ATOM     21  C10 UNL     1     -33.737  71.472 -20.569  0.00  0.00    +0.000 C 
ATOM     22  C11 UNL     1     -32.548  70.867 -21.337  0.00  0.00    +0.000 C 
ATOM     23  C12 UNL     1     -32.597  69.336 -21.504  0.00  0.00    +0.002 C 
ATOM     24  C13 UNL     1     -33.990  68.712 -21.711  0.00  0.00    +0.024 C 
ENDBRANCH   9  18
ENDBRANCH   4   7
BRANCH   1  26
ATOM     25  C1  UNL     1     -39.785  61.731 -19.594  0.00  0.00    +0.253 C 
ATOM     26  O1  UNL     1     -38.462  62.049 -20.013  0.00  0.00    -0.468 OA
ENDBRANCH   1  26
BRANCH   6  27
ATOM     27  O3  UNL     1     -38.781  61.940 -22.726  0.00  0.00    -0.472 OA
BRANCH  27  28
ATOM     28  C23 UNL     1     -38.218  61.292 -23.864  0.00  0.00    +0.206 C 
BRANCH  28  29
ATOM     29  C24 UNL     1     -36.713  61.556 -23.928  0.00  0.00    +0.051 C 
BRANCH  29  30
ATOM     30  C25 UNL     1     -36.266  61.887 -25.360  0.00  0.00    +0.051 C 
BRANCH  30  31
ATOM     31  C26 UNL     1     -35.905  63.365 -25.511  0.00  0.00    +0.206 C 
BRANCH  31  32
ATOM     32  O4  UNL     1     -34.497  63.516 -25.681  0.00  0.00    -0.475 OA
BRANCH  32  33
ATOM     33  C27 UNL     1     -33.613  63.859 -24.646  0.00  0.00    +0.139 A 
ATOM     34  C28 UNL     1     -32.215  63.788 -24.794  0.00  0.00    +0.037 A 
ATOM     35  C29 UNL     1     -31.373  64.144 -23.738  0.00  0.00    +0.006 A 
ATOM     36  C30 UNL     1     -31.906  64.586 -22.512  0.00  0.00    +0.040 A 
ATOM     37  C32 UNL     1     -33.304  64.653 -22.370  0.00  0.00    +0.006 A 
ATOM     38  C33 UNL     1     -34.145  64.288 -23.427  0.00  0.00    +0.037 A 
BRANCH  36  39
ATOM     39  C31 UNL     1     -31.007  64.979 -21.394  0.00  0.00    +0.208 A 
ATOM     40  N3  UNL     1     -30.231  64.131 -20.682  0.00  0.00    -0.106 NA
ATOM     41  N4  UNL     1     -29.589  64.883 -19.804  0.00  0.00    -0.021 NA
ATOM     42  N5  UNL     1     -29.945  66.146 -19.958  0.00  0.00    -0.021 NA
ATOM     43  N6  UNL     1     -30.826  66.240 -20.940  0.00  0.00    -0.106 NA
ENDBRANCH  36  39
ENDBRANCH  32  33
ENDBRANCH  31  32
ENDBRANCH  30  31
ENDBRANCH  29  30
ENDBRANCH  28  29
ENDBRANCH  27  28
ENDBRANCH   6  27
TORSDOF 11
ENDMDL
MODEL 6
REMARK VINA RESULT:      -5.5      3.333      6.371
REMARK  Name = ./data/4wxx_site_bc02/pdb/l1c1.pdb
REMARK  11 active torsions:
REMARK  status: ('A' for Active; 'I' for Inactive)
REMARK    1  A    between atoms: O1_2  and  C2_3
REMARK    2  A    between atoms: C5_6  and  C6_7
REMARK    3  A    between atoms: N2_9  and  C7_10
REMARK    4  A    between atoms: C22_26  and  O3_27
REMARK    5  A    between atoms: O3_27  and  C23_28
REMARK    6  A    between atoms: C23_28  and  C24_29
REMARK    7  A    between atoms: C24_29  and  C25_30
REMARK    8  A    between atoms: C25_30  and  C26_31
REMARK    9  A    between atoms: C26_31  and  O4_32
REMARK   10  A    between atoms: O4_32  and  C27_33
REMARK   11  A    between atoms: C30_36  and  C31_37
REMARK                            x       y       z     vdW  Elec       q    Type
REMARK                         _______ _______ _______ _____ _____    ______ ____
ROOT
ATOM      1  C2  UNL     1     -38.461  67.390 -26.065  0.00  0.00    +0.172 A 
ATOM      2  C3  UNL     1     -38.647  67.564 -24.683  0.00  0.00    +0.040 A 
ATOM      3  C4  UNL     1     -37.551  67.644 -23.823  0.00  0.00    +0.005 A 
ATOM      4  C5  UNL     1     -36.237  67.567 -24.321  0.00  0.00    +0.018 A 
ATOM      5  C21 UNL     1     -36.057  67.409 -25.711  0.00  0.00    +0.041 A 
ATOM      6  C22 UNL     1     -37.160  67.303 -26.581  0.00  0.00    +0.172 A 
ENDROOT
BRANCH   4   7
ATOM      7  C6  UNL     1     -35.045  67.629 -23.419  0.00  0.00    +0.079 C 
ATOM      8  N1  UNL     1     -34.579  66.516 -22.941  0.00  0.00    -0.172 NA
ATOM      9  N2  UNL     1     -33.499  66.408 -22.045  0.00  0.00    -0.222 N 
ATOM     10  C14 UNL     1     -32.759  67.448 -21.738  0.00  0.00    +0.253 C 
ATOM     11  O2  UNL     1     -31.629  67.281 -20.932  0.00  0.00    -0.271 OA
ATOM     12  C15 UNL     1     -33.062  68.830 -22.293  0.00  0.00    +0.091 C 
ATOM     13  C16 UNL     1     -32.802  69.916 -21.197  0.00  0.00    +0.035 C 
ATOM     14  C17 UNL     1     -33.666  71.140 -21.342  0.00  0.00    -0.030 C 
ATOM     15  C18 UNL     1     -34.957  71.008 -21.663  0.00  0.00    -0.030 C 
ATOM     16  C19 UNL     1     -35.487  69.648 -22.009  0.00  0.00    +0.032 C 
ATOM     17  C20 UNL     1     -34.480  68.949 -22.945  0.00  0.00    +0.056 C 
BRANCH   9  18
ATOM     18  C7  UNL     1     -33.218  65.047 -21.535  0.00  0.00    +0.108 C 
ATOM     19  C8  UNL     1     -34.511  64.201 -21.496  0.00  0.00    +0.024 C 
ATOM     20  C9  UNL     1     -34.420  62.983 -20.568  0.00  0.00    +0.002 C 
ATOM     21  C10 UNL     1     -33.295  62.006 -20.943  0.00  0.00    +0.000 C 
ATOM     22  C11 UNL     1     -31.910  62.514 -20.506  0.00  0.00    +0.000 C 
ATOM     23  C12 UNL     1     -31.198  63.417 -21.532  0.00  0.00    +0.002 C 
ATOM     24  C13 UNL     1     -32.095  64.363 -22.353  0.00  0.00    +0.024 C 
ENDBRANCH   9  18
ENDBRANCH   4   7
BRANCH   1  26
ATOM     25  C1  UNL     1     -40.893  67.587 -26.621  0.00  0.00    +0.253 C 
ATOM     26  O1  UNL     1     -39.541  67.299 -26.959  0.00  0.00    -0.468 OA
ENDBRANCH   1  26
BRANCH   6  27
ATOM     27  O3  UNL     1     -37.005  67.103 -27.961  0.00  0.00    -0.472 OA
BRANCH  27  28
ATOM     28  C23 UNL     1     -36.414  65.948 -28.552  0.00  0.00    +0.206 C 
BRANCH  28  29
ATOM     29  C24 UNL     1     -37.155  64.688 -28.101  0.00  0.00    +0.051 C 
BRANCH  29  30
ATOM     30  C25 UNL     1     -36.174  63.588 -27.670  0.00  0.00    +0.051 C 
BRANCH  30  31
ATOM     31  C26 UNL     1     -35.344  64.015 -26.460  0.00  0.00    +0.206 C 
BRANCH  31  32
ATOM     32  O4  UNL     1     -35.369  63.000 -25.459  0.00  0.00    -0.475 OA
BRANCH  32  33
ATOM     33  C27 UNL     1     -36.351  62.902 -24.460  0.00  0.00    +0.139 A 
ATOM     34  C28 UNL     1     -37.231  63.960 -24.163  0.00  0.00    +0.037 A 
ATOM     35  C29 UNL     1     -38.196  63.816 -23.163  0.00  0.00    +0.006 A 
ATOM     36  C30 UNL     1     -38.311  62.612 -22.443  0.00  0.00    +0.040 A 
ATOM     37  C32 UNL     1     -37.427  61.559 -22.745  0.00  0.00    +0.006 A 
ATOM     38  C33 UNL     1     -36.455  61.709 -23.741  0.00  0.00    +0.037 A 
BRANCH  36  39
ATOM     39  C31 UNL     1     -39.349  62.456 -21.390  0.00  0.00    +0.208 A 
ATOM     40  N3  UNL     1     -40.683  62.412 -21.609  0.00  0.00    -0.106 NA
ATOM     41  N4  UNL     1     -41.238  62.253 -20.419  0.00  0.00    -0.021 NA
ATOM     42  N5  UNL     1     -40.295  62.200 -19.495  0.00  0.00    -0.021 NA
ATOM     43  N6  UNL     1     -39.108  62.323 -20.066  0.00  0.00    -0.106 NA
ENDBRANCH  36  39
ENDBRANCH  32  33
ENDBRANCH  31  32
ENDBRANCH  30  31
ENDBRANCH  29  30
ENDBRANCH  28  29
ENDBRANCH  27  28
ENDBRANCH   6  27
TORSDOF 11
ENDMDL
MODEL 7
REMARK VINA RESULT:      -5.5      3.150      5.991
REMARK  Name = ./data/4wxx_site_bc02/pdb/l1c1.pdb
REMARK  11 active torsions:
REMARK  status: ('A' for Active; 'I' for Inactive)
REMARK    1  A    between atoms: O1_2  and  C2_3
REMARK    2  A    between atoms: C5_6  and  C6_7
REMARK    3  A    between atoms: N2_9  and  C7_10
REMARK    4  A    between atoms: C22_26  and  O3_27
REMARK    5  A    between atoms: O3_27  and  C23_28
REMARK    6  A    between atoms: C23_28  and  C24_29
REMARK    7  A    between atoms: C24_29  and  C25_30
REMARK    8  A    between atoms: C25_30  and  C26_31
REMARK    9  A    between atoms: C26_31  and  O4_32
REMARK   10  A    between atoms: O4_32  and  C27_33
REMARK   11  A    between atoms: C30_36  and  C31_37
REMARK                            x       y       z     vdW  Elec       q    Type
REMARK                         _______ _______ _______ _____ _____    ______ ____
ROOT
ATOM      1  C2  UNL     1     -37.741  63.145 -20.945  0.00  0.00    +0.172 A 
ATOM      2  C3  UNL     1     -37.110  64.165 -20.211  0.00  0.00    +0.040 A 
ATOM      3  C4  UNL     1     -36.930  65.432 -20.767  0.00  0.00    +0.005 A 
ATOM      4  C5  UNL     1     -37.387  65.721 -22.066  0.00  0.00    +0.018 A 
ATOM      5  C21 UNL     1     -38.034  64.699 -22.790  0.00  0.00    +0.041 A 
ATOM      6  C22 UNL     1     -38.197  63.411 -22.244  0.00  0.00    +0.172 A 
ENDROOT
BRANCH   4   7
ATOM      7  C6  UNL     1     -37.188  67.065 -22.694  0.00  0.00    +0.079 C 
ATOM      8  N1  UNL     1     -38.072  67.480 -23.548  0.00  0.00    -0.172 NA
ATOM      9  N2  UNL     1     -38.006  68.693 -24.259  0.00  0.00    -0.222 N 
ATOM     10  C14 UNL     1     -37.094  69.596 -23.985  0.00  0.00    +0.253 C 
ATOM     11  O2  UNL     1     -37.128  70.834 -24.634  0.00  0.00    -0.271 OA
ATOM     12  C15 UNL     1     -36.033  69.357 -22.924  0.00  0.00    +0.091 C 
ATOM     13  C16 UNL     1     -34.664  69.953 -23.392  0.00  0.00    +0.035 C 
ATOM     14  C17 UNL     1     -33.468  69.229 -22.834  0.00  0.00    -0.030 C 
ATOM     15  C18 UNL     1     -33.471  67.894 -22.768  0.00  0.00    -0.030 C 
ATOM     16  C19 UNL     1     -34.724  67.149 -23.121  0.00  0.00    +0.032 C 
ATOM     17  C20 UNL     1     -35.925  67.864 -22.467  0.00  0.00    +0.056 C 
BRANCH   9  18
ATOM     18  C7  UNL     1     -39.064  68.904 -25.274  0.00  0.00    +0.108 C 
ATOM     19  C8  UNL     1     -38.621  68.348 -26.646  0.00  0.00    +0.024 C 
ATOM     20  C9  UNL     1     -39.413  68.926 -27.826  0.00  0.00    +0.002 C 
ATOM     21  C10 UNL     1     -40.925  68.666 -27.740  0.00  0.00    +0.000 C 
ATOM     22  C11 UNL     1     -41.623  69.603 -26.739  0.00  0.00    +0.000 C 
ATOM     23  C12 UNL     1     -41.652  69.092 -25.285  0.00  0.00    +0.002 C 
ATOM     24  C13 UNL     1     -40.415  68.308 -24.808  0.00  0.00    +0.024 C 
ENDBRANCH   9  18
ENDBRANCH   4   7
BRANCH   1  26
ATOM     25  C1  UNL     1     -38.914  61.522 -19.444  0.00  0.00    +0.253 C 
ATOM     26  O1  UNL     1     -37.933  61.857 -20.419  0.00  0.00    -0.468 OA
ENDBRANCH   1  26
BRANCH   6  27
ATOM     27  O3  UNL     1     -38.799  62.366 -22.962  0.00  0.00    -0.472 OA
BRANCH  27  28
ATOM     28  C23 UNL     1     -38.306  61.836 -24.191  0.00  0.00    +0.206 C 
BRANCH  28  29
ATOM     29  C24 UNL     1     -36.795  61.616 -24.100  0.00  0.00    +0.051 C 
BRANCH  29  30
ATOM     30  C25 UNL     1     -36.080  62.131 -25.359  0.00  0.00    +0.051 C 
BRANCH  30  31
ATOM     31  C26 UNL     1     -35.784  63.627 -25.268  0.00  0.00    +0.206 C 
BRANCH  31  32
ATOM     32  O4  UNL     1     -34.379  63.859 -25.333  0.00  0.00    -0.475 OA
BRANCH  32  33
ATOM     33  C27 UNL     1     -33.536  63.906 -24.212  0.00  0.00    +0.139 A 
ATOM     34  C28 UNL     1     -34.031  63.883 -22.894  0.00  0.00    +0.037 A 
ATOM     35  C29 UNL     1     -33.154  63.926 -21.808  0.00  0.00    +0.006 A 
ATOM     36  C30 UNL     1     -31.762  63.987 -22.011  0.00  0.00    +0.040 A 
ATOM     37  C32 UNL     1     -31.274  64.012 -23.331  0.00  0.00    +0.006 A 
ATOM     38  C33 UNL     1     -32.155  63.976 -24.417  0.00  0.00    +0.037 A 
BRANCH  36  39
ATOM     39  C31 UNL     1     -30.830  64.018 -20.853  0.00  0.00    +0.208 A 
ATOM     40  N3  UNL     1     -30.468  62.946 -20.113  0.00  0.00    -0.106 NA
ATOM     41  N4  UNL     1     -29.624  63.405 -19.203  0.00  0.00    -0.021 NA
ATOM     42  N5  UNL     1     -29.465  64.706 -19.364  0.00  0.00    -0.021 NA
ATOM     43  N6  UNL     1     -30.201  65.119 -20.383  0.00  0.00    -0.106 NA
ENDBRANCH  36  39
ENDBRANCH  32  33
ENDBRANCH  31  32
ENDBRANCH  30  31
ENDBRANCH  29  30
ENDBRANCH  28  29
ENDBRANCH  27  28
ENDBRANCH   6  27
TORSDOF 11
ENDMDL
MODEL 8
REMARK VINA RESULT:      -5.4      5.046      8.428
REMARK  Name = ./data/4wxx_site_bc02/pdb/l1c1.pdb
REMARK  11 active torsions:
REMARK  status: ('A' for Active; 'I' for Inactive)
REMARK    1  A    between atoms: O1_2  and  C2_3
REMARK    2  A    between atoms: C5_6  and  C6_7
REMARK    3  A    between atoms: N2_9  and  C7_10
REMARK    4  A    between atoms: C22_26  and  O3_27
REMARK    5  A    between atoms: O3_27  and  C23_28
REMARK    6  A    between atoms: C23_28  and  C24_29
REMARK    7  A    between atoms: C24_29  and  C25_30
REMARK    8  A    between atoms: C25_30  and  C26_31
REMARK    9  A    between atoms: C26_31  and  O4_32
REMARK   10  A    between atoms: O4_32  and  C27_33
REMARK   11  A    between atoms: C30_36  and  C31_37
REMARK                            x       y       z     vdW  Elec       q    Type
REMARK                         _______ _______ _______ _____ _____    ______ ____
ROOT
ATOM      1  C2  UNL     1     -42.429  68.844 -24.506  0.00  0.00    +0.172 A 
ATOM      2  C3  UNL     1     -42.845  69.745 -23.510  0.00  0.00    +0.040 A 
ATOM      3  C4  UNL     1     -41.908  70.414 -22.721  0.00  0.00    +0.005 A 
ATOM      4  C5  UNL     1     -40.529  70.212 -22.913  0.00  0.00    +0.018 A 
ATOM      5  C21 UNL     1     -40.118  69.319 -23.924  0.00  0.00    +0.041 A 
ATOM      6  C22 UNL     1     -41.059  68.623 -24.708  0.00  0.00    +0.172 A 
ENDROOT
BRANCH   4   7
ATOM      7  C6  UNL     1     -39.504  70.900 -22.068  0.00  0.00    +0.079 C 
ATOM      8  N1  UNL     1     -38.251  70.705 -22.342  0.00  0.00    -0.172 NA
ATOM      9  N2  UNL     1     -37.169  71.237 -21.615  0.00  0.00    -0.222 N 
ATOM     10  C14 UNL     1     -37.355  72.128 -20.670  0.00  0.00    +0.253 C 
ATOM     11  O2  UNL     1     -36.250  72.717 -20.047  0.00  0.00    -0.271 OA
ATOM     12  C15 UNL     1     -38.747  72.591 -20.275  0.00  0.00    +0.091 C 
ATOM     13  C16 UNL     1     -38.827  72.790 -18.726  0.00  0.00    +0.035 C 
ATOM     14  C17 UNL     1     -40.202  72.561 -18.157  0.00  0.00    -0.030 C 
ATOM     15  C18 UNL     1     -40.943  71.541 -18.600  0.00  0.00    -0.030 C 
ATOM     16  C19 UNL     1     -40.445  70.726 -19.755  0.00  0.00    +0.032 C 
ATOM     17  C20 UNL     1     -39.893  71.681 -20.833  0.00  0.00    +0.056 C 
BRANCH   9  18
ATOM     18  C7  UNL     1     -35.824  70.781 -22.034  0.00  0.00    +0.108 C 
ATOM     19  C8  UNL     1     -35.879  69.327 -22.554  0.00  0.00    +0.024 C 
ATOM     20  C9  UNL     1     -34.514  68.626 -22.559  0.00  0.00    +0.002 C 
ATOM     21  C10 UNL     1     -33.460  69.337 -23.421  0.00  0.00    +0.000 C 
ATOM     22  C11 UNL     1     -32.881  70.582 -22.728  0.00  0.00    +0.000 C 
ATOM     23  C12 UNL     1     -33.670  71.883 -22.971  0.00  0.00    +0.002 C 
ATOM     24  C13 UNL     1     -35.201  71.750 -23.069  0.00  0.00    +0.024 C 
ENDBRANCH   9  18
ENDBRANCH   4   7
BRANCH   1  26
ATOM     25  C1  UNL     1     -44.041  68.718 -26.416  0.00  0.00    +0.253 C 
ATOM     26  O1  UNL     1     -43.344  68.148 -25.313  0.00  0.00    -0.468 OA
ENDBRANCH   1  26
BRANCH   6  27
ATOM     27  O3  UNL     1     -40.674  67.698 -25.691  0.00  0.00    -0.472 OA
BRANCH  27  28
ATOM     28  C23 UNL     1     -40.205  68.045 -26.992  0.00  0.00    +0.206 C 
BRANCH  28  29
ATOM     29  C24 UNL     1     -38.676  68.024 -27.023  0.00  0.00    +0.051 C 
BRANCH  29  30
ATOM     30  C25 UNL     1     -38.120  66.808 -26.268  0.00  0.00    +0.051 C 
BRANCH  30  31
ATOM     31  C26 UNL     1     -37.136  67.223 -25.175  0.00  0.00    +0.206 C 
BRANCH  31  32
ATOM     32  O4  UNL     1     -36.426  66.086 -24.688  0.00  0.00    -0.475 OA
BRANCH  32  33
ATOM     33  C27 UNL     1     -36.873  65.271 -23.636  0.00  0.00    +0.139 A 
ATOM     34  C28 UNL     1     -37.165  65.783 -22.358  0.00  0.00    +0.037 A 
ATOM     35  C29 UNL     1     -37.612  64.935 -21.342  0.00  0.00    +0.006 A 
ATOM     36  C30 UNL     1     -37.784  63.558 -21.580  0.00  0.00    +0.040 A 
ATOM     37  C32 UNL     1     -37.488  63.053 -22.860  0.00  0.00    +0.006 A 
ATOM     38  C33 UNL     1     -37.033  63.903 -23.873  0.00  0.00    +0.037 A 
BRANCH  36  39
ATOM     39  C31 UNL     1     -38.273  62.659 -20.500  0.00  0.00    +0.208 A 
ATOM     40  N3  UNL     1     -38.881  63.065 -19.363  0.00  0.00    -0.106 NA
ATOM     41  N4  UNL     1     -39.164  61.960 -18.693  0.00  0.00    -0.021 NA
ATOM     42  N5  UNL     1     -38.751  60.909 -19.378  0.00  0.00    -0.021 NA
ATOM     43  N6  UNL     1     -38.193  61.309 -20.508  0.00  0.00    -0.106 NA
ENDBRANCH  36  39
ENDBRANCH  32  33
ENDBRANCH  31  32
ENDBRANCH  30  31
ENDBRANCH  29  30
ENDBRANCH  28  29
ENDBRANCH  27  28
ENDBRANCH   6  27
TORSDOF 11
ENDMDL
MODEL 9
REMARK VINA RESULT:      -5.4      3.311      6.421
REMARK  Name = ./data/4wxx_site_bc02/pdb/l1c1.pdb
REMARK  11 active torsions:
REMARK  status: ('A' for Active; 'I' for Inactive)
REMARK    1  A    between atoms: O1_2  and  C2_3
REMARK    2  A    between atoms: C5_6  and  C6_7
REMARK    3  A    between atoms: N2_9  and  C7_10
REMARK    4  A    between atoms: C22_26  and  O3_27
REMARK    5  A    between atoms: O3_27  and  C23_28
REMARK    6  A    between atoms: C23_28  and  C24_29
REMARK    7  A    between atoms: C24_29  and  C25_30
REMARK    8  A    between atoms: C25_30  and  C26_31
REMARK    9  A    between atoms: C26_31  and  O4_32
REMARK   10  A    between atoms: O4_32  and  C27_33
REMARK   11  A    between atoms: C30_36  and  C31_37
REMARK                            x       y       z     vdW  Elec       q    Type
REMARK                         _______ _______ _______ _____ _____    ______ ____
ROOT
ATOM      1  C2  UNL     1     -35.819  70.053 -22.266  0.00  0.00    +0.172 A 
ATOM      2  C3  UNL     1     -34.476  69.876 -21.892  0.00  0.00    +0.040 A 
ATOM      3  C4  UNL     1     -33.756  68.764 -22.333  0.00  0.00    +0.005 A 
ATOM      4  C5  UNL     1     -34.355  67.806 -23.173  0.00  0.00    +0.018 A 
ATOM      5  C21 UNL     1     -35.697  67.999 -23.558  0.00  0.00    +0.041 A 
ATOM      6  C22 UNL     1     -36.435  69.106 -23.095  0.00  0.00    +0.172 A 
ENDROOT
BRANCH   4   7
ATOM      7  C6  UNL     1     -33.612  66.595 -23.644  0.00  0.00    +0.079 C 
ATOM      8  N1  UNL     1     -32.759  66.046 -22.835  0.00  0.00    -0.172 NA
ATOM      9  N2  UNL     1     -31.949  64.937 -23.142  0.00  0.00    -0.222 N 
ATOM     10  C14 UNL     1     -32.115  64.256 -24.252  0.00  0.00    +0.253 C 
ATOM     11  O2  UNL     1     -31.368  63.094 -24.471  0.00  0.00    -0.271 OA
ATOM     12  C15 UNL     1     -33.154  64.661 -25.285  0.00  0.00    +0.091 C 
ATOM     13  C16 UNL     1     -32.590  64.440 -26.727  0.00  0.00    +0.035 C 
ATOM     14  C17 UNL     1     -33.162  65.383 -27.751  0.00  0.00    -0.030 C 
ATOM     15  C18 UNL     1     -33.338  66.672 -27.442  0.00  0.00    -0.030 C 
ATOM     16  C19 UNL     1     -33.092  67.124 -26.034  0.00  0.00    +0.032 C 
ATOM     17  C20 UNL     1     -33.727  66.102 -25.068  0.00  0.00    +0.056 C 
BRANCH   9  18
ATOM     18  C7  UNL     1     -30.959  64.555 -22.110  0.00  0.00    +0.108 C 
ATOM     19  C8  UNL     1     -30.462  65.802 -21.344  0.00  0.00    +0.024 C 
ATOM     20  C9  UNL     1     -29.132  65.582 -20.612  0.00  0.00    +0.002 C 
ATOM     21  C10 UNL     1     -29.179  64.449 -19.575  0.00  0.00    +0.000 C 
ATOM     22  C11 UNL     1     -29.115  63.058 -20.228  0.00  0.00    +0.000 C 
ATOM     23  C12 UNL     1     -30.480  62.472 -20.639  0.00  0.00    +0.002 C 
ATOM     24  C13 UNL     1     -31.528  63.473 -21.160  0.00  0.00    +0.024 C 
ENDBRANCH   9  18
ENDBRANCH   4   7
BRANCH   1  26
ATOM     25  C1  UNL     1     -36.028  72.315 -21.215  0.00  0.00    +0.253 C 
ATOM     26  O1  UNL     1     -36.575  71.156 -21.834  0.00  0.00    -0.468 OA
ENDBRANCH   1  26
BRANCH   6  27
ATOM     27  O3  UNL     1     -37.785  69.295 -23.431  0.00  0.00    -0.472 OA
BRANCH  27  28
ATOM     28  C23 UNL     1     -38.361  68.968 -24.694  0.00  0.00    +0.206 C 
BRANCH  28  29
ATOM     29  C24 UNL     1     -39.367  67.828 -24.533  0.00  0.00    +0.051 C 
BRANCH  29  30
ATOM     30  C25 UNL     1     -39.077  66.685 -25.518  0.00  0.00    +0.051 C 
BRANCH  30  31
ATOM     31  C26 UNL     1     -37.608  66.266 -25.479  0.00  0.00    +0.206 C 
BRANCH  31  32
ATOM     32  O4  UNL     1     -37.499  64.860 -25.272  0.00  0.00    -0.475 OA
BRANCH  32  33
ATOM     33  C27 UNL     1     -37.852  64.210 -24.079  0.00  0.00    +0.139 A 
ATOM     34  C28 UNL     1     -37.491  64.710 -22.813  0.00  0.00    +0.037 A 
ATOM     35  C29 UNL     1     -37.869  64.032 -21.652  0.00  0.00    +0.006 A 
ATOM     36  C30 UNL     1     -38.621  62.845 -21.725  0.00  0.00    +0.040 A 
ATOM     37  C32 UNL     1     -38.977  62.350 -22.994  0.00  0.00    +0.006 A 
ATOM     38  C33 UNL     1     -38.591  63.026 -24.156  0.00  0.00    +0.037 A 
BRANCH  36  39
ATOM     39  C31 UNL     1     -39.034  62.133 -20.486  0.00  0.00    +0.208 A 
ATOM     40  N3  UNL     1     -40.294  62.084 -19.998  0.00  0.00    -0.106 NA
ATOM     41  N4  UNL     1     -40.226  61.347 -18.902  0.00  0.00    -0.021 NA
ATOM     42  N5  UNL     1     -38.980  60.951 -18.711  0.00  0.00    -0.021 NA
ATOM     43  N6  UNL     1     -38.213  61.423 -19.680  0.00  0.00    -0.106 NA
ENDBRANCH  36  39
ENDBRANCH  32  33
ENDBRANCH  31  32
ENDBRANCH  30  31
ENDBRANCH  29  30
ENDBRANCH  28  29
ENDBRANCH  27  28
ENDBRANCH   6  27
TORSDOF 11
ENDMDL
