MODEL 1
REMARK VINA RESULT:      -9.0      0.000      0.000
REMARK  Name = ./data/4wxx_site_bc02/pdb/l1c1.pdb
REMARK  11 active torsions:
REMARK  status: ('A' for Active; 'I' for Inactive)
REMARK    1  A    between atoms: O1_2  and  C2_3
REMARK    2  A    between atoms: C5_6  and  C6_7
REMARK    3  A    between atoms: N2_9  and  C7_10
REMARK    4  A    between atoms: C22_26  and  O3_27
REMARK    5  A    between atoms: O3_27  and  C23_28
REMARK    6  A    between atoms: C23_28  and  C24_29
REMARK    7  A    between atoms: C24_29  and  C25_30
REMARK    8  A    between atoms: C25_30  and  C26_31
REMARK    9  A    between atoms: C26_31  and  O4_32
REMARK   10  A    between atoms: O4_32  and  C27_33
REMARK   11  A    between atoms: C30_36  and  C31_37
REMARK                            x       y       z     vdW  Elec       q    Type
REMARK                         _______ _______ _______ _____ _____    ______ ____
ROOT
ATOM      1  C2  UNL     1     -46.875  57.597   7.246  0.00  0.00    +0.172 A 
ATOM      2  C3  UNL     1     -46.562  58.711   8.044  0.00  0.00    +0.040 A 
ATOM      3  C4  UNL     1     -47.316  59.882   7.956  0.00  0.00    +0.005 A 
ATOM      4  C5  UNL     1     -48.413  59.969   7.078  0.00  0.00    +0.018 A 
ATOM      5  C21 UNL     1     -48.731  58.842   6.293  0.00  0.00    +0.041 A 
ATOM      6  C22 UNL     1     -47.959  57.666   6.360  0.00  0.00    +0.172 A 
ENDROOT
BRANCH   4   7
ATOM      7  C6  UNL     1     -49.224  61.219   6.949  0.00  0.00    +0.079 C 
ATOM      8  N1  UNL     1     -48.664  62.262   6.418  0.00  0.00    -0.172 NA
ATOM      9  N2  UNL     1     -49.272  63.523   6.270  0.00  0.00    -0.222 N 
ATOM     10  C14 UNL     1     -50.548  63.699   6.523  0.00  0.00    +0.253 C 
ATOM     11  O2  UNL     1     -51.142  64.937   6.258  0.00  0.00    -0.271 OA
ATOM     12  C15 UNL     1     -51.420  62.566   7.038  0.00  0.00    +0.091 C 
ATOM     13  C16 UNL     1     -52.434  63.110   8.098  0.00  0.00    +0.035 C 
ATOM     14  C17 UNL     1     -52.832  62.091   9.132  0.00  0.00    -0.030 C 
ATOM     15  C18 UNL     1     -51.908  61.275   9.650  0.00  0.00    -0.030 C 
ATOM     16  C19 UNL     1     -50.518  61.297   9.089  0.00  0.00    +0.032 C 
ATOM     17  C20 UNL     1     -50.607  61.329   7.549  0.00  0.00    +0.056 C 
BRANCH   9  18
ATOM     18  C7  UNL     1     -48.402  64.602   5.750  0.00  0.00    +0.108 C 
ATOM     19  C8  UNL     1     -46.950  64.418   6.246  0.00  0.00    +0.024 C 
ATOM     20  C9  UNL     1     -46.107  65.697   6.163  0.00  0.00    +0.002 C 
ATOM     21  C10 UNL     1     -45.992  66.268   4.741  0.00  0.00    +0.000 C 
ATOM     22  C11 UNL     1     -47.267  67.012   4.305  0.00  0.00    +0.000 C 
ATOM     23  C12 UNL     1     -48.342  66.124   3.649  0.00  0.00    +0.002 C 
ATOM     24  C13 UNL     1     -48.487  64.695   4.206  0.00  0.00    +0.024 C 
ENDBRANCH   9  18
ENDBRANCH   4   7
BRANCH   1  26
ATOM     25  C1  UNL     1     -44.715  56.334   7.225  0.00  0.00    +0.253 C 
ATOM     26  O1  UNL     1     -46.134  56.405   7.304  0.00  0.00    -0.468 OA
ENDBRANCH   1  26
BRANCH   6  27
ATOM     27  O3  UNL     1     -48.232  56.547   5.557  0.00  0.00    -0.472 OA
BRANCH  27  28
ATOM     28  C23 UNL     1     -49.201  55.546   5.862  0.00  0.00    +0.206 C 
BRANCH  28  29
ATOM     29  C24 UNL     1     -48.726  54.183   5.357  0.00  0.00    +0.051 C 
BRANCH  29  30
ATOM     30  C25 UNL     1     -49.338  53.852   3.988  0.00  0.00    +0.051 C 
BRANCH  30  31
ATOM     31  C26 UNL     1     -50.441  52.801   4.102  0.00  0.00    +0.206 C 
BRANCH  31  32
ATOM     32  O4  UNL     1     -51.708  53.377   3.790  0.00  0.00    -0.475 OA
BRANCH  32  33
ATOM     33  C27 UNL     1     -52.146  54.622   4.269  0.00  0.00    +0.139 A 
ATOM     34  C28 UNL     1     -52.871  54.755   5.469  0.00  0.00    +0.037 A 
ATOM     35  C29 UNL     1     -53.282  56.016   5.909  0.00  0.00    +0.006 A 
ATOM     36  C30 UNL     1     -52.974  57.172   5.167  0.00  0.00    +0.040 A 
ATOM     37  C32 UNL     1     -52.251  57.030   3.968  0.00  0.00    +0.006 A 
ATOM     38  C33 UNL     1     -51.847  55.766   3.525  0.00  0.00    +0.037 A 
BRANCH  36  39
ATOM     39  C31 UNL     1     -53.400  58.514   5.646  0.00  0.00    +0.208 A 
ATOM     40  N3  UNL     1     -53.619  58.848   6.938  0.00  0.00    -0.106 NA
ATOM     41  N4  UNL     1     -53.965  60.125   6.925  0.00  0.00    -0.021 NA
ATOM     42  N5  UNL     1     -53.964  60.571   5.682  0.00  0.00    -0.021 NA
ATOM     43  N6  UNL     1     -53.616  59.594   4.861  0.00  0.00    -0.106 NA
ENDBRANCH  36  39
ENDBRANCH  32  33
ENDBRANCH  31  32
ENDBRANCH  30  31
ENDBRANCH  29  30
ENDBRANCH  28  29
ENDBRANCH  27  28
ENDBRANCH   6  27
TORSDOF 11
ENDMDL
MODEL 2
REMARK VINA RESULT:      -7.7      1.423      2.436
REMARK  Name = ./data/4wxx_site_bc02/pdb/l1c1.pdb
REMARK  11 active torsions:
REMARK  status: ('A' for Active; 'I' for Inactive)
REMARK    1  A    between atoms: O1_2  and  C2_3
REMARK    2  A    between atoms: C5_6  and  C6_7
REMARK    3  A    between atoms: N2_9  and  C7_10
REMARK    4  A    between atoms: C22_26  and  O3_27
REMARK    5  A    between atoms: O3_27  and  C23_28
REMARK    6  A    between atoms: C23_28  and  C24_29
REMARK    7  A    between atoms: C24_29  and  C25_30
REMARK    8  A    between atoms: C25_30  and  C26_31
REMARK    9  A    between atoms: C26_31  and  O4_32
REMARK   10  A    between atoms: O4_32  and  C27_33
REMARK   11  A    between atoms: C30_36  and  C31_37
REMARK                            x       y       z     vdW  Elec       q    Type
REMARK                         _______ _______ _______ _____ _____    ______ ____
ROOT
ATOM      1  C2  UNL     1     -47.556  58.622   9.636  0.00  0.00    +0.172 A 
ATOM      2  C3  UNL     1     -48.606  59.322  10.254  0.00  0.00    +0.040 A 
ATOM      3  C4  UNL     1     -49.301  60.315   9.562  0.00  0.00    +0.005 A 
ATOM      4  C5  UNL     1     -48.975  60.627   8.229  0.00  0.00    +0.018 A 
ATOM      5  C21 UNL     1     -47.932  59.909   7.610  0.00  0.00    +0.041 A 
ATOM      6  C22 UNL     1     -47.211  58.922   8.311  0.00  0.00    +0.172 A 
ENDROOT
BRANCH   4   7
ATOM      7  C6  UNL     1     -49.690  61.701   7.471  0.00  0.00    +0.079 C 
ATOM      8  N1  UNL     1     -48.980  62.615   6.884  0.00  0.00    -0.172 NA
ATOM      9  N2  UNL     1     -49.498  63.715   6.177  0.00  0.00    -0.222 N 
ATOM     10  C14 UNL     1     -50.780  63.817   5.915  0.00  0.00    +0.253 C 
ATOM     11  O2  UNL     1     -51.243  64.865   5.114  0.00  0.00    -0.271 OA
ATOM     12  C15 UNL     1     -51.776  62.780   6.408  0.00  0.00    +0.091 C 
ATOM     13  C16 UNL     1     -53.104  63.479   6.850  0.00  0.00    +0.035 C 
ATOM     14  C17 UNL     1     -53.843  62.743   7.935  0.00  0.00    -0.030 C 
ATOM     15  C18 UNL     1     -53.164  62.202   8.951  0.00  0.00    -0.030 C 
ATOM     16  C19 UNL     1     -51.665  62.219   8.919  0.00  0.00    +0.032 C 
ATOM     17  C20 UNL     1     -51.197  61.822   7.503  0.00  0.00    +0.056 C 
BRANCH   9  18
ATOM     18  C7  UNL     1     -48.502  64.699   5.694  0.00  0.00    +0.108 C 
ATOM     19  C8  UNL     1     -47.095  64.361   6.236  0.00  0.00    +0.024 C 
ATOM     20  C9  UNL     1     -46.120  65.545   6.192  0.00  0.00    +0.002 C 
ATOM     21  C10 UNL     1     -45.898  66.107   4.779  0.00  0.00    +0.000 C 
ATOM     22  C11 UNL     1     -47.071  66.982   4.307  0.00  0.00    +0.000 C 
ATOM     23  C12 UNL     1     -48.211  66.216   3.609  0.00  0.00    +0.002 C 
ATOM     24  C13 UNL     1     -48.524  64.808   4.149  0.00  0.00    +0.024 C 
ENDBRANCH   9  18
ENDBRANCH   4   7
BRANCH   1  26
ATOM     25  C1  UNL     1     -47.298  56.918  11.450  0.00  0.00    +0.253 C 
ATOM     26  O1  UNL     1     -46.831  57.621  10.304  0.00  0.00    -0.468 OA
ENDBRANCH   1  26
BRANCH   6  27
ATOM     27  O3  UNL     1     -46.141  58.225   7.728  0.00  0.00    -0.472 OA
BRANCH  27  28
ATOM     28  C23 UNL     1     -45.805  56.869   8.015  0.00  0.00    +0.206 C 
BRANCH  28  29
ATOM     29  C24 UNL     1     -45.131  56.227   6.801  0.00  0.00    +0.051 C 
BRANCH  29  30
ATOM     30  C25 UNL     1     -46.158  55.880   5.713  0.00  0.00    +0.051 C 
BRANCH  30  31
ATOM     31  C26 UNL     1     -46.994  54.659   6.094  0.00  0.00    +0.206 C 
BRANCH  31  32
ATOM     32  O4  UNL     1     -48.173  54.596   5.294  0.00  0.00    -0.475 OA
BRANCH  32  33
ATOM     33  C27 UNL     1     -49.226  55.521   5.370  0.00  0.00    +0.139 A 
ATOM     34  C28 UNL     1     -50.388  55.406   4.584  0.00  0.00    +0.037 A 
ATOM     35  C29 UNL     1     -51.413  56.348   4.697  0.00  0.00    +0.006 A 
ATOM     36  C30 UNL     1     -51.306  57.422   5.600  0.00  0.00    +0.040 A 
ATOM     37  C32 UNL     1     -50.141  57.531   6.382  0.00  0.00    +0.006 A 
ATOM     38  C33 UNL     1     -49.112  56.591   6.261  0.00  0.00    +0.037 A 
BRANCH  36  39
ATOM     39  C31 UNL     1     -52.406  58.415   5.729  0.00  0.00    +0.208 A 
ATOM     40  N3  UNL     1     -53.060  58.993   4.697  0.00  0.00    -0.106 NA
ATOM     41  N4  UNL     1     -53.960  59.793   5.244  0.00  0.00    -0.021 NA
ATOM     42  N5  UNL     1     -53.874  59.721   6.561  0.00  0.00    -0.021 NA
ATOM     43  N6  UNL     1     -52.917  58.871   6.895  0.00  0.00    -0.106 NA
ENDBRANCH  36  39
ENDBRANCH  32  33
ENDBRANCH  31  32
ENDBRANCH  30  31
ENDBRANCH  29  30
ENDBRANCH  28  29
ENDBRANCH  27  28
ENDBRANCH   6  27
TORSDOF 11
ENDMDL
MODEL 3
REMARK VINA RESULT:      -6.2      4.663      6.901
REMARK  Name = ./data/4wxx_site_bc02/pdb/l1c1.pdb
REMARK  11 active torsions:
REMARK  status: ('A' for Active; 'I' for Inactive)
REMARK    1  A    between atoms: O1_2  and  C2_3
REMARK    2  A    between atoms: C5_6  and  C6_7
REMARK    3  A    between atoms: N2_9  and  C7_10
REMARK    4  A    between atoms: C22_26  and  O3_27
REMARK    5  A    between atoms: O3_27  and  C23_28
REMARK    6  A    between atoms: C23_28  and  C24_29
REMARK    7  A    between atoms: C24_29  and  C25_30
REMARK    8  A    between atoms: C25_30  and  C26_31
REMARK    9  A    between atoms: C26_31  and  O4_32
REMARK   10  A    between atoms: O4_32  and  C27_33
REMARK   11  A    between atoms: C30_36  and  C31_37
REMARK                            x       y       z     vdW  Elec       q    Type
REMARK                         _______ _______ _______ _____ _____    ______ ____
ROOT
ATOM      1  C2  UNL     1     -49.578  62.805   6.094  0.00  0.00    +0.172 A 
ATOM      2  C3  UNL     1     -48.799  63.146   4.975  0.00  0.00    +0.040 A 
ATOM      3  C4  UNL     1     -49.383  63.757   3.864  0.00  0.00    +0.005 A 
ATOM      4  C5  UNL     1     -50.758  64.056   3.845  0.00  0.00    +0.018 A 
ATOM      5  C21 UNL     1     -51.529  63.727   4.978  0.00  0.00    +0.041 A 
ATOM      6  C22 UNL     1     -50.951  63.089   6.093  0.00  0.00    +0.172 A 
ENDROOT
BRANCH   4   7
ATOM      7  C6  UNL     1     -51.412  64.691   2.659  0.00  0.00    +0.079 C 
ATOM      8  N1  UNL     1     -51.572  65.979   2.663  0.00  0.00    -0.172 NA
ATOM      9  N2  UNL     1     -52.210  66.720   1.650  0.00  0.00    -0.222 N 
ATOM     10  C14 UNL     1     -52.563  66.163   0.516  0.00  0.00    +0.253 C 
ATOM     11  O2  UNL     1     -53.092  66.953  -0.509  0.00  0.00    -0.271 OA
ATOM     12  C15 UNL     1     -52.349  64.681   0.258  0.00  0.00    +0.091 C 
ATOM     13  C16 UNL     1     -53.561  64.095  -0.539  0.00  0.00    +0.035 C 
ATOM     14  C17 UNL     1     -53.819  62.638  -0.262  0.00  0.00    -0.030 C 
ATOM     15  C18 UNL     1     -53.730  62.173   0.987  0.00  0.00    -0.030 C 
ATOM     16  C19 UNL     1     -53.239  63.085   2.072  0.00  0.00    +0.032 C 
ATOM     17  C20 UNL     1     -52.012  63.860   1.548  0.00  0.00    +0.056 C 
BRANCH   9  18
ATOM     18  C7  UNL     1     -52.388  68.164   1.923  0.00  0.00    +0.108 C 
ATOM     19  C8  UNL     1     -53.356  68.380   3.109  0.00  0.00    +0.024 C 
ATOM     20  C9  UNL     1     -53.960  69.789   3.159  0.00  0.00    +0.002 C 
ATOM     21  C10 UNL     1     -52.910  70.906   3.271  0.00  0.00    +0.000 C 
ATOM     22  C11 UNL     1     -52.215  71.190   1.928  0.00  0.00    +0.000 C 
ATOM     23  C12 UNL     1     -50.973  70.322   1.646  0.00  0.00    +0.002 C 
ATOM     24  C13 UNL     1     -51.025  68.866   2.145  0.00  0.00    +0.024 C 
ENDBRANCH   9  18
ENDBRANCH   4   7
BRANCH   1  26
ATOM     25  C1  UNL     1     -48.148  61.064   7.184  0.00  0.00    +0.253 C 
ATOM     26  O1  UNL     1     -49.025  62.184   7.227  0.00  0.00    -0.468 OA
ENDBRANCH   1  26
BRANCH   6  27
ATOM     27  O3  UNL     1     -51.708  62.713   7.213  0.00  0.00    -0.472 OA
BRANCH  27  28
ATOM     28  C23 UNL     1     -53.067  63.083   7.436  0.00  0.00    +0.206 C 
BRANCH  28  29
ATOM     29  C24 UNL     1     -53.947  61.834   7.504  0.00  0.00    +0.051 C 
BRANCH  29  30
ATOM     30  C25 UNL     1     -53.560  60.820   6.417  0.00  0.00    +0.051 C 
BRANCH  30  31
ATOM     31  C26 UNL     1     -52.421  59.910   6.875  0.00  0.00    +0.206 C 
BRANCH  31  32
ATOM     32  O4  UNL     1     -51.597  59.551   5.768  0.00  0.00    -0.475 OA
BRANCH  32  33
ATOM     33  C27 UNL     1     -51.137  58.248   5.519  0.00  0.00    +0.139 A 
ATOM     34  C28 UNL     1     -52.012  57.156   5.366  0.00  0.00    +0.037 A 
ATOM     35  C29 UNL     1     -51.508  55.877   5.114  0.00  0.00    +0.006 A 
ATOM     36  C30 UNL     1     -50.122  55.661   5.002  0.00  0.00    +0.040 A 
ATOM     37  C32 UNL     1     -49.253  56.757   5.158  0.00  0.00    +0.006 A 
ATOM     38  C33 UNL     1     -49.759  58.035   5.418  0.00  0.00    +0.037 A 
BRANCH  36  39
ATOM     39  C31 UNL     1     -49.589  54.301   4.719  0.00  0.00    +0.208 A 
ATOM     40  N3  UNL     1     -49.251  53.385   5.654  0.00  0.00    -0.106 NA
ATOM     41  N4  UNL     1     -48.841  52.321   4.983  0.00  0.00    -0.021 NA
ATOM     42  N5  UNL     1     -48.917  52.559   3.686  0.00  0.00    -0.021 NA
ATOM     43  N6  UNL     1     -49.380  53.782   3.487  0.00  0.00    -0.106 NA
ENDBRANCH  36  39
ENDBRANCH  32  33
ENDBRANCH  31  32
ENDBRANCH  30  31
ENDBRANCH  29  30
ENDBRANCH  28  29
ENDBRANCH  27  28
ENDBRANCH   6  27
TORSDOF 11
ENDMDL
