MODEL 1
REMARK VINA RESULT:      -7.6      0.000      0.000
REMARK  Name = ./data/4wxx_site_bc02/pdb/l0c0.pdb
REMARK  11 active torsions:
REMARK  status: ('A' for Active; 'I' for Inactive)
REMARK    1  A    between atoms: O1_2  and  C2_3
REMARK    2  A    between atoms: C5_6  and  C6_7
REMARK    3  A    between atoms: N2_9  and  C7_10
REMARK    4  A    between atoms: C19_23  and  O3_24
REMARK    5  A    between atoms: O3_24  and  C20_25
REMARK    6  A    between atoms: C20_25  and  C21_26
REMARK    7  A    between atoms: C21_26  and  C22_27
REMARK    8  A    between atoms: C22_27  and  C23_28
REMARK    9  A    between atoms: C23_28  and  O4_29
REMARK   10  A    between atoms: O4_29  and  C24_30
REMARK   11  A    between atoms: C27_33  and  C28_34
REMARK                            x       y       z     vdW  Elec       q    Type
REMARK                         _______ _______ _______ _____ _____    ______ ____
ROOT
ATOM      1  C2  UNL     1     -79.391  54.055  19.227  0.00  0.00    +0.172 A 
ATOM      2  C3  UNL     1     -78.480  54.935  19.840  0.00  0.00    +0.040 A 
ATOM      3  C4  UNL     1     -78.918  55.876  20.775  0.00  0.00    +0.005 A 
ATOM      4  C5  UNL     1     -80.277  55.964  21.118  0.00  0.00    +0.019 A 
ATOM      5  C18 UNL     1     -81.186  55.098  20.481  0.00  0.00    +0.041 A 
ATOM      6  C19 UNL     1     -80.751  54.131  19.557  0.00  0.00    +0.172 A 
ENDROOT
BRANCH   4   7
ATOM      7  C6  UNL     1     -80.791  56.917  22.146  0.00  0.00    +0.086 C 
ATOM      8  N1  UNL     1     -82.064  57.056  22.340  0.00  0.00    -0.171 NA
ATOM      9  N2  UNL     1     -82.301  57.964  23.368  0.00  0.00    -0.222 N 
ATOM     10  C14 UNL     1     -81.181  58.412  23.829  0.00  0.00    +0.257 C 
ATOM     11  O2  UNL     1     -81.095  59.344  24.863  0.00  0.00    -0.270 OA
ATOM     12  C15 UNL     1     -80.010  57.792  23.116  0.00  0.00    +0.110 C 
ATOM     13  C16 UNL     1     -79.193  58.881  22.404  0.00  0.00    +0.015 C 
ATOM     14  C17 UNL     1     -79.174  56.972  24.115  0.00  0.00    +0.015 C 
BRANCH   9  15
ATOM     15  C7  UNL     1     -83.649  58.304  23.843  0.00  0.00    +0.108 C 
ATOM     16  C8  UNL     1     -84.456  58.930  22.684  0.00  0.00    +0.024 C 
ATOM     17  C9  UNL     1     -85.970  59.017  22.948  0.00  0.00    +0.002 C 
ATOM     18  C10 UNL     1     -86.715  57.761  22.467  0.00  0.00    +0.000 C 
ATOM     19  C11 UNL     1     -86.524  56.540  23.375  0.00  0.00    +0.000 C 
ATOM     20  C12 UNL     1     -85.055  56.126  23.551  0.00  0.00    +0.002 C 
ATOM     21  C13 UNL     1     -84.296  57.064  24.509  0.00  0.00    +0.024 C 
ENDBRANCH   9  15
ENDBRANCH   4   7
BRANCH   1  23
ATOM     22  C1  UNL     1     -78.102  52.013  18.568  0.00  0.00    +0.253 C 
ATOM     23  O1  UNL     1     -78.985  53.095  18.287  0.00  0.00    -0.468 OA
ENDBRANCH   1  23
BRANCH   6  24
ATOM     24  O3  UNL     1     -81.638  53.225  18.946  0.00  0.00    -0.472 OA
BRANCH  24  25
ATOM     25  C20 UNL     1     -83.033  53.451  18.730  0.00  0.00    +0.206 C 
BRANCH  25  26
ATOM     26  C21 UNL     1     -83.877  52.764  19.813  0.00  0.00    +0.051 C 
BRANCH  26  27
ATOM     27  C22 UNL     1     -85.159  52.176  19.215  0.00  0.00    +0.051 C 
BRANCH  27  28
ATOM     28  C23 UNL     1     -86.130  53.283  18.791  0.00  0.00    +0.206 C 
BRANCH  28  29
ATOM     29  O4  UNL     1     -86.159  54.323  19.769  0.00  0.00    -0.475 OA
BRANCH  29  30
ATOM     30  C24 UNL     1     -86.159  55.700  19.489  0.00  0.00    +0.139 A 
ATOM     31  C25 UNL     1     -87.325  56.406  19.134  0.00  0.00    +0.037 A 
ATOM     32  C26 UNL     1     -87.268  57.776  18.863  0.00  0.00    +0.006 A 
ATOM     33  C27 UNL     1     -86.049  58.471  18.947  0.00  0.00    +0.040 A 
ATOM     34  C29 UNL     1     -84.888  57.764  19.306  0.00  0.00    +0.006 A 
ATOM     35  C30 UNL     1     -84.947  56.392  19.574  0.00  0.00    +0.037 A 
BRANCH  33  36
ATOM     36  C28 UNL     1     -85.989  59.926  18.661  0.00  0.00    +0.208 A 
ATOM     37  N3  UNL     1     -85.915  60.902  19.594  0.00  0.00    -0.106 NA
ATOM     38  N4  UNL     1     -85.891  62.041  18.919  0.00  0.00    -0.021 NA
ATOM     39  N5  UNL     1     -85.945  61.788  17.623  0.00  0.00    -0.021 NA
ATOM     40  N6  UNL     1     -86.008  60.481  17.430  0.00  0.00    -0.106 NA
ENDBRANCH  33  36
ENDBRANCH  29  30
ENDBRANCH  28  29
ENDBRANCH  27  28
ENDBRANCH  26  27
ENDBRANCH  25  26
ENDBRANCH  24  25
ENDBRANCH   6  24
TORSDOF 11
ENDMDL
MODEL 2
REMARK VINA RESULT:      -6.4      1.511      1.912
REMARK  Name = ./data/4wxx_site_bc02/pdb/l0c0.pdb
REMARK  11 active torsions:
REMARK  status: ('A' for Active; 'I' for Inactive)
REMARK    1  A    between atoms: O1_2  and  C2_3
REMARK    2  A    between atoms: C5_6  and  C6_7
REMARK    3  A    between atoms: N2_9  and  C7_10
REMARK    4  A    between atoms: C19_23  and  O3_24
REMARK    5  A    between atoms: O3_24  and  C20_25
REMARK    6  A    between atoms: C20_25  and  C21_26
REMARK    7  A    between atoms: C21_26  and  C22_27
REMARK    8  A    between atoms: C22_27  and  C23_28
REMARK    9  A    between atoms: C23_28  and  O4_29
REMARK   10  A    between atoms: O4_29  and  C24_30
REMARK   11  A    between atoms: C27_33  and  C28_34
REMARK                            x       y       z     vdW  Elec       q    Type
REMARK                         _______ _______ _______ _____ _____    ______ ____
ROOT
ATOM      1  C2  UNL     1     -79.980  54.909  19.629  0.00  0.00    +0.172 A 
ATOM      2  C3  UNL     1     -79.145  55.432  20.634  0.00  0.00    +0.040 A 
ATOM      3  C4  UNL     1     -79.690  56.045  21.765  0.00  0.00    +0.005 A 
ATOM      4  C5  UNL     1     -81.082  56.154  21.918  0.00  0.00    +0.019 A 
ATOM      5  C18 UNL     1     -81.910  55.652  20.896  0.00  0.00    +0.041 A 
ATOM      6  C19 UNL     1     -81.371  55.011  19.765  0.00  0.00    +0.172 A 
ENDROOT
BRANCH   4   7
ATOM      7  C6  UNL     1     -81.718  56.754  23.128  0.00  0.00    +0.086 C 
ATOM      8  N1  UNL     1     -82.928  56.438  23.464  0.00  0.00    -0.171 NA
ATOM      9  N2  UNL     1     -83.289  57.089  24.641  0.00  0.00    -0.222 N 
ATOM     10  C14 UNL     1     -82.314  57.828  25.055  0.00  0.00    +0.257 C 
ATOM     11  O2  UNL     1     -82.380  58.608  26.209  0.00  0.00    -0.270 OA
ATOM     12  C15 UNL     1     -81.123  57.721  24.142  0.00  0.00    +0.110 C 
ATOM     13  C16 UNL     1     -80.804  59.095  23.534  0.00  0.00    +0.015 C 
ATOM     14  C17 UNL     1     -79.936  57.116  24.914  0.00  0.00    +0.015 C 
BRANCH   9  15
ATOM     15  C7  UNL     1     -84.593  56.902  25.292  0.00  0.00    +0.108 C 
ATOM     16  C8  UNL     1     -85.566  56.224  24.303  0.00  0.00    +0.024 C 
ATOM     17  C9  UNL     1     -86.843  55.670  24.958  0.00  0.00    +0.002 C 
ATOM     18  C10 UNL     1     -86.674  54.211  25.414  0.00  0.00    +0.000 C 
ATOM     19  C11 UNL     1     -85.830  54.052  26.686  0.00  0.00    +0.000 C 
ATOM     20  C12 UNL     1     -84.412  54.631  26.562  0.00  0.00    +0.002 C 
ATOM     21  C13 UNL     1     -84.401  56.169  26.643  0.00  0.00    +0.024 C 
ENDBRANCH   9  15
ENDBRANCH   4   7
BRANCH   1  23
ATOM     22  C1  UNL     1     -78.922  52.967  18.456  0.00  0.00    +0.253 C 
ATOM     23  O1  UNL     1     -79.465  54.283  18.482  0.00  0.00    -0.468 OA
ENDBRANCH   1  23
BRANCH   6  24
ATOM     24  O3  UNL     1     -82.183  54.461  18.757  0.00  0.00    -0.472 OA
BRANCH  24  25
ATOM     25  C20 UNL     1     -82.717  53.134  18.755  0.00  0.00    +0.206 C 
BRANCH  25  26
ATOM     26  C21 UNL     1     -83.252  52.754  20.143  0.00  0.00    +0.051 C 
BRANCH  26  27
ATOM     27  C22 UNL     1     -84.772  52.931  20.210  0.00  0.00    +0.051 C 
BRANCH  27  28
ATOM     28  C23 UNL     1     -85.174  53.830  21.383  0.00  0.00    +0.206 C 
BRANCH  28  29
ATOM     29  O4  UNL     1     -86.328  54.603  21.049  0.00  0.00    -0.475 OA
BRANCH  29  30
ATOM     30  C24 UNL     1     -86.314  55.950  20.650  0.00  0.00    +0.139 A 
ATOM     31  C25 UNL     1     -87.381  56.832  20.907  0.00  0.00    +0.037 A 
ATOM     32  C26 UNL     1     -87.315  58.164  20.485  0.00  0.00    +0.006 A 
ATOM     33  C27 UNL     1     -86.182  58.643  19.805  0.00  0.00    +0.040 A 
ATOM     34  C29 UNL     1     -85.117  57.761  19.557  0.00  0.00    +0.006 A 
ATOM     35  C30 UNL     1     -85.185  56.428  19.977  0.00  0.00    +0.037 A 
BRANCH  33  36
ATOM     36  C28 UNL     1     -86.112  60.057  19.361  0.00  0.00    +0.208 A 
ATOM     37  N3  UNL     1     -85.649  61.087  20.103  0.00  0.00    -0.106 NA
ATOM     38  N4  UNL     1     -85.770  62.162  19.340  0.00  0.00    -0.021 NA
ATOM     39  N5  UNL     1     -86.281  61.818  18.171  0.00  0.00    -0.021 NA
ATOM     40  N6  UNL     1     -86.506  60.515  18.152  0.00  0.00    -0.106 NA
ENDBRANCH  33  36
ENDBRANCH  29  30
ENDBRANCH  28  29
ENDBRANCH  27  28
ENDBRANCH  26  27
ENDBRANCH  25  26
ENDBRANCH  24  25
ENDBRANCH   6  24
TORSDOF 11
ENDMDL
MODEL 3
REMARK VINA RESULT:      -6.4      3.499      7.608
REMARK  Name = ./data/4wxx_site_bc02/pdb/l0c0.pdb
REMARK  11 active torsions:
REMARK  status: ('A' for Active; 'I' for Inactive)
REMARK    1  A    between atoms: O1_2  and  C2_3
REMARK    2  A    between atoms: C5_6  and  C6_7
REMARK    3  A    between atoms: N2_9  and  C7_10
REMARK    4  A    between atoms: C19_23  and  O3_24
REMARK    5  A    between atoms: O3_24  and  C20_25
REMARK    6  A    between atoms: C20_25  and  C21_26
REMARK    7  A    between atoms: C21_26  and  C22_27
REMARK    8  A    between atoms: C22_27  and  C23_28
REMARK    9  A    between atoms: C23_28  and  O4_29
REMARK   10  A    between atoms: O4_29  and  C24_30
REMARK   11  A    between atoms: C27_33  and  C28_34
REMARK                            x       y       z     vdW  Elec       q    Type
REMARK                         _______ _______ _______ _____ _____    ______ ____
ROOT
ATOM      1  C2  UNL     1     -85.477  58.111  17.950  0.00  0.00    +0.172 A 
ATOM      2  C3  UNL     1     -84.917  56.919  17.454  0.00  0.00    +0.040 A 
ATOM      3  C4  UNL     1     -85.128  55.705  18.112  0.00  0.00    +0.005 A 
ATOM      4  C5  UNL     1     -85.900  55.652  19.285  0.00  0.00    +0.019 A 
ATOM      5  C18 UNL     1     -86.435  56.852  19.789  0.00  0.00    +0.041 A 
ATOM      6  C19 UNL     1     -86.248  58.076  19.119  0.00  0.00    +0.172 A 
ENDROOT
BRANCH   4   7
ATOM      7  C6  UNL     1     -86.197  54.376  19.999  0.00  0.00    +0.086 C 
ATOM      8  N1  UNL     1     -86.709  54.389  21.189  0.00  0.00    -0.171 NA
ATOM      9  N2  UNL     1     -86.932  53.088  21.634  0.00  0.00    -0.222 N 
ATOM     10  C14 UNL     1     -86.559  52.242  20.733  0.00  0.00    +0.257 C 
ATOM     11  O2  UNL     1     -86.654  50.860  20.893  0.00  0.00    -0.270 OA
ATOM     12  C15 UNL     1     -86.029  52.943  19.512  0.00  0.00    +0.110 C 
ATOM     13  C16 UNL     1     -84.558  52.564  19.287  0.00  0.00    +0.015 C 
ATOM     14  C17 UNL     1     -86.925  52.619  18.303  0.00  0.00    +0.015 C 
BRANCH   9  15
ATOM     15  C7  UNL     1     -87.539  52.780  22.936  0.00  0.00    +0.108 C 
ATOM     16  C8  UNL     1     -86.647  51.769  23.689  0.00  0.00    +0.024 C 
ATOM     17  C9  UNL     1     -86.985  51.623  25.183  0.00  0.00    +0.002 C 
ATOM     18  C10 UNL     1     -86.188  52.606  26.056  0.00  0.00    +0.000 C 
ATOM     19  C11 UNL     1     -86.691  54.053  25.979  0.00  0.00    +0.000 C 
ATOM     20  C12 UNL     1     -86.680  54.635  24.557  0.00  0.00    +0.002 C 
ATOM     21  C13 UNL     1     -87.839  54.096  23.697  0.00  0.00    +0.024 C 
ENDBRANCH   9  15
ENDBRANCH   4   7
BRANCH   1  23
ATOM     22  C1  UNL     1     -86.164  59.888  16.326  0.00  0.00    +0.253 C 
ATOM     23  O1  UNL     1     -85.289  59.347  17.311  0.00  0.00    -0.468 OA
ENDBRANCH   1  23
BRANCH   6  24
ATOM     24  O3  UNL     1     -86.815  59.278  19.583  0.00  0.00    -0.472 OA
BRANCH  24  25
ATOM     25  C20 UNL     1     -86.767  59.749  20.931  0.00  0.00    +0.206 C 
BRANCH  25  26
ATOM     26  C21 UNL     1     -85.319  60.005  21.375  0.00  0.00    +0.051 C 
BRANCH  26  27
ATOM     27  C22 UNL     1     -85.073  59.447  22.781  0.00  0.00    +0.051 C 
BRANCH  27  28
ATOM     28  C23 UNL     1     -84.762  57.948  22.734  0.00  0.00    +0.206 C 
BRANCH  28  29
ATOM     29  O4  UNL     1     -83.390  57.711  23.053  0.00  0.00    -0.475 OA
BRANCH  29  30
ATOM     30  C24 UNL     1     -82.503  56.934  22.289  0.00  0.00    +0.139 A 
ATOM     31  C25 UNL     1     -81.105  57.087  22.355  0.00  0.00    +0.037 A 
ATOM     32  C26 UNL     1     -80.267  56.287  21.572  0.00  0.00    +0.006 A 
ATOM     33  C27 UNL     1     -80.807  55.315  20.712  0.00  0.00    +0.040 A 
ATOM     34  C29 UNL     1     -82.202  55.161  20.654  0.00  0.00    +0.006 A 
ATOM     35  C30 UNL     1     -83.039  55.964  21.436  0.00  0.00    +0.037 A 
BRANCH  33  36
ATOM     36  C28 UNL     1     -79.917  54.465  19.883  0.00  0.00    +0.208 A 
ATOM     37  N3  UNL     1     -80.236  53.945  18.677  0.00  0.00    -0.106 NA
ATOM     38  N4  UNL     1     -79.176  53.252  18.293  0.00  0.00    -0.021 NA
ATOM     39  N5  UNL     1     -78.234  53.339  19.217  0.00  0.00    -0.021 NA
ATOM     40  N6  UNL     1     -78.665  54.086  20.219  0.00  0.00    -0.106 NA
ENDBRANCH  33  36
ENDBRANCH  29  30
ENDBRANCH  28  29
ENDBRANCH  27  28
ENDBRANCH  26  27
ENDBRANCH  25  26
ENDBRANCH  24  25
ENDBRANCH   6  24
TORSDOF 11
ENDMDL
MODEL 4
REMARK VINA RESULT:      -6.2      2.640      6.073
REMARK  Name = ./data/4wxx_site_bc02/pdb/l0c0.pdb
REMARK  11 active torsions:
REMARK  status: ('A' for Active; 'I' for Inactive)
REMARK    1  A    between atoms: O1_2  and  C2_3
REMARK    2  A    between atoms: C5_6  and  C6_7
REMARK    3  A    between atoms: N2_9  and  C7_10
REMARK    4  A    between atoms: C19_23  and  O3_24
REMARK    5  A    between atoms: O3_24  and  C20_25
REMARK    6  A    between atoms: C20_25  and  C21_26
REMARK    7  A    between atoms: C21_26  and  C22_27
REMARK    8  A    between atoms: C22_27  and  C23_28
REMARK    9  A    between atoms: C23_28  and  O4_29
REMARK   10  A    between atoms: O4_29  and  C24_30
REMARK   11  A    between atoms: C27_33  and  C28_34
REMARK                            x       y       z     vdW  Elec       q    Type
REMARK                         _______ _______ _______ _____ _____    ______ ____
ROOT
ATOM      1  C2  UNL     1     -80.514  55.098  19.011  0.00  0.00    +0.172 A 
ATOM      2  C3  UNL     1     -81.647  55.886  18.737  0.00  0.00    +0.040 A 
ATOM      3  C4  UNL     1     -82.905  55.519  19.222  0.00  0.00    +0.005 A 
ATOM      4  C5  UNL     1     -83.062  54.354  19.992  0.00  0.00    +0.019 A 
ATOM      5  C18 UNL     1     -81.928  53.558  20.241  0.00  0.00    +0.041 A 
ATOM      6  C19 UNL     1     -80.653  53.932  19.776  0.00  0.00    +0.172 A 
ENDROOT
BRANCH   4   7
ATOM      7  C6  UNL     1     -84.372  53.943  20.577  0.00  0.00    +0.086 C 
ATOM      8  N1  UNL     1     -84.717  54.334  21.763  0.00  0.00    -0.171 NA
ATOM      9  N2  UNL     1     -85.988  53.860  22.077  0.00  0.00    -0.222 N 
ATOM     10  C14 UNL     1     -86.455  53.161  21.096  0.00  0.00    +0.257 C 
ATOM     11  O2  UNL     1     -87.708  52.550  21.119  0.00  0.00    -0.270 OA
ATOM     12  C15 UNL     1     -85.482  53.111  19.950  0.00  0.00    +0.110 C 
ATOM     13  C16 UNL     1     -85.056  51.659  19.687  0.00  0.00    +0.015 C 
ATOM     14  C17 UNL     1     -86.106  53.787  18.716  0.00  0.00    +0.015 C 
BRANCH   9  15
ATOM     15  C7  UNL     1     -86.668  54.168  23.343  0.00  0.00    +0.108 C 
ATOM     16  C8  UNL     1     -86.385  53.042  24.362  0.00  0.00    +0.024 C 
ATOM     17  C9  UNL     1     -86.751  53.402  25.812  0.00  0.00    +0.002 C 
ATOM     18  C10 UNL     1     -85.574  54.046  26.564  0.00  0.00    +0.000 C 
ATOM     19  C11 UNL     1     -85.305  55.502  26.164  0.00  0.00    +0.000 C 
ATOM     20  C12 UNL     1     -85.011  55.686  24.667  0.00  0.00    +0.002 C 
ATOM     21  C13 UNL     1     -86.286  55.596  23.807  0.00  0.00    +0.024 C 
ENDBRANCH   9  15
ENDBRANCH   4   7
BRANCH   1  23
ATOM     22  C1  UNL     1     -78.678  56.749  18.598  0.00  0.00    +0.253 C 
ATOM     23  O1  UNL     1     -79.236  55.440  18.542  0.00  0.00    -0.468 OA
ENDBRANCH   1  23
BRANCH   6  24
ATOM     24  O3  UNL     1     -79.501  53.174  20.055  0.00  0.00    -0.472 OA
BRANCH  24  25
ATOM     25  C20 UNL     1     -78.174  53.693  20.162  0.00  0.00    +0.206 C 
BRANCH  25  26
ATOM     26  C21 UNL     1     -77.444  53.095  21.373  0.00  0.00    +0.051 C 
BRANCH  26  27
ATOM     27  C22 UNL     1     -76.718  54.187  22.166  0.00  0.00    +0.051 C 
BRANCH  27  28
ATOM     28  C23 UNL     1     -77.174  55.583  21.730  0.00  0.00    +0.206 C 
BRANCH  28  29
ATOM     29  O4  UNL     1     -77.825  56.256  22.809  0.00  0.00    -0.475 OA
BRANCH  29  30
ATOM     30  C24 UNL     1     -79.128  56.781  22.768  0.00  0.00    +0.139 A 
ATOM     31  C25 UNL     1     -79.396  58.161  22.842  0.00  0.00    +0.037 A 
ATOM     32  C26 UNL     1     -80.713  58.630  22.798  0.00  0.00    +0.006 A 
ATOM     33  C27 UNL     1     -81.788  57.732  22.675  0.00  0.00    +0.040 A 
ATOM     34  C29 UNL     1     -81.515  56.355  22.597  0.00  0.00    +0.006 A 
ATOM     35  C30 UNL     1     -80.197  55.888  22.643  0.00  0.00    +0.037 A 
BRANCH  33  36
ATOM     36  C28 UNL     1     -83.184  58.229  22.628  0.00  0.00    +0.208 A 
ATOM     37  N3  UNL     1     -83.785  58.965  23.590  0.00  0.00    -0.106 NA
ATOM     38  N4  UNL     1     -85.015  59.186  23.157  0.00  0.00    -0.021 NA
ATOM     39  N5  UNL     1     -85.177  58.617  21.974  0.00  0.00    -0.021 NA
ATOM     40  N6  UNL     1     -84.055  58.013  21.618  0.00  0.00    -0.106 NA
ENDBRANCH  33  36
ENDBRANCH  29  30
ENDBRANCH  28  29
ENDBRANCH  27  28
ENDBRANCH  26  27
ENDBRANCH  25  26
ENDBRANCH  24  25
ENDBRANCH   6  24
TORSDOF 11
ENDMDL
MODEL 5
REMARK VINA RESULT:      -5.6      3.697      7.272
REMARK  Name = ./data/4wxx_site_bc02/pdb/l0c0.pdb
REMARK  11 active torsions:
REMARK  status: ('A' for Active; 'I' for Inactive)
REMARK    1  A    between atoms: O1_2  and  C2_3
REMARK    2  A    between atoms: C5_6  and  C6_7
REMARK    3  A    between atoms: N2_9  and  C7_10
REMARK    4  A    between atoms: C19_23  and  O3_24
REMARK    5  A    between atoms: O3_24  and  C20_25
REMARK    6  A    between atoms: C20_25  and  C21_26
REMARK    7  A    between atoms: C21_26  and  C22_27
REMARK    8  A    between atoms: C22_27  and  C23_28
REMARK    9  A    between atoms: C23_28  and  O4_29
REMARK   10  A    between atoms: O4_29  and  C24_30
REMARK   11  A    between atoms: C27_33  and  C28_34
REMARK                            x       y       z     vdW  Elec       q    Type
REMARK                         _______ _______ _______ _____ _____    ______ ____
ROOT
ATOM      1  C2  UNL     1     -84.514  56.840  18.517  0.00  0.00    +0.172 A 
ATOM      2  C3  UNL     1     -83.727  55.720  18.838  0.00  0.00    +0.040 A 
ATOM      3  C4  UNL     1     -84.151  54.804  19.804  0.00  0.00    +0.005 A 
ATOM      4  C5  UNL     1     -85.372  54.987  20.475  0.00  0.00    +0.019 A 
ATOM      5  C18 UNL     1     -86.142  56.123  20.166  0.00  0.00    +0.041 A 
ATOM      6  C19 UNL     1     -85.734  57.038  19.177  0.00  0.00    +0.172 A 
ENDROOT
BRANCH   4   7
ATOM      7  C6  UNL     1     -85.896  54.014  21.478  0.00  0.00    +0.086 C 
ATOM      8  N1  UNL     1     -86.215  54.403  22.672  0.00  0.00    -0.171 NA
ATOM      9  N2  UNL     1     -86.713  53.334  23.413  0.00  0.00    -0.222 N 
ATOM     10  C14 UNL     1     -86.707  52.259  22.697  0.00  0.00    +0.257 C 
ATOM     11  O2  UNL     1     -87.145  51.022  23.169  0.00  0.00    -0.270 OA
ATOM     12  C15 UNL     1     -86.186  52.529  21.311  0.00  0.00    +0.110 C 
ATOM     13  C16 UNL     1     -84.915  51.703  21.061  0.00  0.00    +0.015 C 
ATOM     14  C17 UNL     1     -87.295  52.252  20.281  0.00  0.00    +0.015 C 
BRANCH   9  15
ATOM     15  C7  UNL     1     -87.192  53.471  24.794  0.00  0.00    +0.108 C 
ATOM     16  C8  UNL     1     -86.165  52.834  25.757  0.00  0.00    +0.024 C 
ATOM     17  C9  UNL     1     -86.377  53.205  27.235  0.00  0.00    +0.002 C 
ATOM     18  C10 UNL     1     -85.600  54.471  27.633  0.00  0.00    +0.000 C 
ATOM     19  C11 UNL     1     -86.225  55.771  27.112  0.00  0.00    +0.000 C 
ATOM     20  C12 UNL     1     -86.370  55.818  25.583  0.00  0.00    +0.002 C 
ATOM     21  C13 UNL     1     -87.542  54.953  25.082  0.00  0.00    +0.024 C 
ENDBRANCH   9  15
ENDBRANCH   4   7
BRANCH   1  23
ATOM     22  C1  UNL     1     -84.962  58.269  16.511  0.00  0.00    +0.253 C 
ATOM     23  O1  UNL     1     -84.120  57.777  17.549  0.00  0.00    -0.468 OA
ENDBRANCH   1  23
BRANCH   6  24
ATOM     24  O3  UNL     1     -86.514  58.155  18.822  0.00  0.00    -0.472 OA
BRANCH  24  25
ATOM     25  C20 UNL     1     -86.804  59.266  19.672  0.00  0.00    +0.206 C 
BRANCH  25  26
ATOM     26  C21 UNL     1     -85.520  60.008  20.069  0.00  0.00    +0.051 C 
BRANCH  26  27
ATOM     27  C22 UNL     1     -85.502  60.302  21.573  0.00  0.00    +0.051 C 
BRANCH  27  28
ATOM     28  C23 UNL     1     -85.328  59.015  22.386  0.00  0.00    +0.206 C 
BRANCH  28  29
ATOM     29  O4  UNL     1     -84.182  59.110  23.233  0.00  0.00    -0.475 OA
BRANCH  29  30
ATOM     30  C24 UNL     1     -82.945  58.488  22.996  0.00  0.00    +0.139 A 
ATOM     31  C25 UNL     1     -81.720  59.040  23.418  0.00  0.00    +0.037 A 
ATOM     32  C26 UNL     1     -80.517  58.378  23.154  0.00  0.00    +0.006 A 
ATOM     33  C27 UNL     1     -80.512  57.151  22.469  0.00  0.00    +0.040 A 
ATOM     34  C29 UNL     1     -81.737  56.601  22.054  0.00  0.00    +0.006 A 
ATOM     35  C30 UNL     1     -82.939  57.265  22.317  0.00  0.00    +0.037 A 
BRANCH  33  36
ATOM     36  C28 UNL     1     -79.235  56.449  22.190  0.00  0.00    +0.208 A 
ATOM     37  N3  UNL     1     -78.972  55.715  21.086  0.00  0.00    -0.106 NA
ATOM     38  N4  UNL     1     -77.737  55.263  21.241  0.00  0.00    -0.021 NA
ATOM     39  N5  UNL     1     -77.249  55.699  22.390  0.00  0.00    -0.021 NA
ATOM     40  N6  UNL     1     -78.156  56.439  23.004  0.00  0.00    -0.106 NA
ENDBRANCH  33  36
ENDBRANCH  29  30
ENDBRANCH  28  29
ENDBRANCH  27  28
ENDBRANCH  26  27
ENDBRANCH  25  26
ENDBRANCH  24  25
ENDBRANCH   6  24
TORSDOF 11
ENDMDL
MODEL 6
REMARK VINA RESULT:      -5.2      3.109      7.015
REMARK  Name = ./data/4wxx_site_bc02/pdb/l0c0.pdb
REMARK  11 active torsions:
REMARK  status: ('A' for Active; 'I' for Inactive)
REMARK    1  A    between atoms: O1_2  and  C2_3
REMARK    2  A    between atoms: C5_6  and  C6_7
REMARK    3  A    between atoms: N2_9  and  C7_10
REMARK    4  A    between atoms: C19_23  and  O3_24
REMARK    5  A    between atoms: O3_24  and  C20_25
REMARK    6  A    between atoms: C20_25  and  C21_26
REMARK    7  A    between atoms: C21_26  and  C22_27
REMARK    8  A    between atoms: C22_27  and  C23_28
REMARK    9  A    between atoms: C23_28  and  O4_29
REMARK   10  A    between atoms: O4_29  and  C24_30
REMARK   11  A    between atoms: C27_33  and  C28_34
REMARK                            x       y       z     vdW  Elec       q    Type
REMARK                         _______ _______ _______ _____ _____    ______ ____
ROOT
ATOM      1  C2  UNL     1     -80.567  55.423  18.494  0.00  0.00    +0.172 A 
ATOM      2  C3  UNL     1     -81.591  56.387  18.534  0.00  0.00    +0.040 A 
ATOM      3  C4  UNL     1     -82.890  56.032  18.907  0.00  0.00    +0.005 A 
ATOM      4  C5  UNL     1     -83.199  54.704  19.247  0.00  0.00    +0.019 A 
ATOM      5  C18 UNL     1     -82.175  53.740  19.180  0.00  0.00    +0.041 A 
ATOM      6  C19 UNL     1     -80.858  54.093  18.829  0.00  0.00    +0.172 A 
ENDROOT
BRANCH   4   7
ATOM      7  C6  UNL     1     -84.556  54.281  19.700  0.00  0.00    +0.086 C 
ATOM      8  N1  UNL     1     -85.124  53.231  19.196  0.00  0.00    -0.171 NA
ATOM      9  N2  UNL     1     -86.361  53.014  19.797  0.00  0.00    -0.222 N 
ATOM     10  C14 UNL     1     -86.589  53.927  20.681  0.00  0.00    +0.257 C 
ATOM     11  O2  UNL     1     -87.754  53.978  21.447  0.00  0.00    -0.270 OA
ATOM     12  C15 UNL     1     -85.443  54.897  20.773  0.00  0.00    +0.110 C 
ATOM     13  C16 UNL     1     -85.922  56.310  20.405  0.00  0.00    +0.015 C 
ATOM     14  C17 UNL     1     -84.816  54.823  22.177  0.00  0.00    +0.015 C 
BRANCH   9  15
ATOM     15  C7  UNL     1     -87.226  51.876  19.460  0.00  0.00    +0.108 C 
ATOM     16  C8  UNL     1     -87.252  51.690  17.927  0.00  0.00    +0.024 C 
ATOM     17  C9  UNL     1     -87.840  50.344  17.468  0.00  0.00    +0.002 C 
ATOM     18  C10 UNL     1     -86.762  49.256  17.337  0.00  0.00    +0.000 C 
ATOM     19  C11 UNL     1     -86.276  48.700  18.682  0.00  0.00    +0.000 C 
ATOM     20  C12 UNL     1     -85.694  49.770  19.618  0.00  0.00    +0.002 C 
ATOM     21  C13 UNL     1     -86.792  50.631  20.273  0.00  0.00    +0.024 C 
ENDBRANCH   9  15
ENDBRANCH   4   7
BRANCH   1  23
ATOM     22  C1  UNL     1     -78.470  56.767  18.742  0.00  0.00    +0.253 C 
ATOM     23  O1  UNL     1     -79.251  55.746  18.128  0.00  0.00    -0.468 OA
ENDBRANCH   1  23
BRANCH   6  24
ATOM     24  O3  UNL     1     -79.812  53.153  18.803  0.00  0.00    -0.472 OA
BRANCH  24  25
ATOM     25  C20 UNL     1     -79.079  52.698  19.943  0.00  0.00    +0.206 C 
BRANCH  25  26
ATOM     26  C21 UNL     1     -78.940  53.813  20.989  0.00  0.00    +0.051 C 
BRANCH  26  27
ATOM     27  C22 UNL     1     -77.503  54.345  21.032  0.00  0.00    +0.051 C 
BRANCH  27  28
ATOM     28  C23 UNL     1     -77.255  55.166  22.301  0.00  0.00    +0.206 C 
BRANCH  28  29
ATOM     29  O4  UNL     1     -77.915  56.430  22.215  0.00  0.00    -0.475 OA
BRANCH  29  30
ATOM     30  C24 UNL     1     -79.130  56.755  22.843  0.00  0.00    +0.139 A 
ATOM     31  C25 UNL     1     -79.269  56.829  24.242  0.00  0.00    +0.037 A 
ATOM     32  C26 UNL     1     -80.502  57.155  24.814  0.00  0.00    +0.006 A 
ATOM     33  C27 UNL     1     -81.619  57.419  24.003  0.00  0.00    +0.040 A 
ATOM     34  C29 UNL     1     -81.475  57.348  22.607  0.00  0.00    +0.006 A 
ATOM     35  C30 UNL     1     -80.241  57.020  22.036  0.00  0.00    +0.037 A 
BRANCH  33  36
ATOM     36  C28 UNL     1     -82.927  57.767  24.611  0.00  0.00    +0.208 A 
ATOM     37  N3  UNL     1     -83.335  59.017  24.923  0.00  0.00    -0.106 NA
ATOM     38  N4  UNL     1     -84.543  58.880  25.446  0.00  0.00    -0.021 NA
ATOM     39  N5  UNL     1     -84.878  57.601  25.456  0.00  0.00    -0.021 NA
ATOM     40  N6  UNL     1     -83.893  56.882  24.944  0.00  0.00    -0.106 NA
ENDBRANCH  33  36
ENDBRANCH  29  30
ENDBRANCH  28  29
ENDBRANCH  27  28
ENDBRANCH  26  27
ENDBRANCH  25  26
ENDBRANCH  24  25
ENDBRANCH   6  24
TORSDOF 11
ENDMDL
MODEL 7
REMARK VINA RESULT:      -4.8      5.042      9.789
REMARK  Name = ./data/4wxx_site_bc02/pdb/l0c0.pdb
REMARK  11 active torsions:
REMARK  status: ('A' for Active; 'I' for Inactive)
REMARK    1  A    between atoms: O1_2  and  C2_3
REMARK    2  A    between atoms: C5_6  and  C6_7
REMARK    3  A    between atoms: N2_9  and  C7_10
REMARK    4  A    between atoms: C19_23  and  O3_24
REMARK    5  A    between atoms: O3_24  and  C20_25
REMARK    6  A    between atoms: C20_25  and  C21_26
REMARK    7  A    between atoms: C21_26  and  C22_27
REMARK    8  A    between atoms: C22_27  and  C23_28
REMARK    9  A    between atoms: C23_28  and  O4_29
REMARK   10  A    between atoms: O4_29  and  C24_30
REMARK   11  A    between atoms: C27_33  and  C28_34
REMARK                            x       y       z     vdW  Elec       q    Type
REMARK                         _______ _______ _______ _____ _____    ______ ____
ROOT
ATOM      1  C2  UNL     1     -80.103  56.163  20.977  0.00  0.00    +0.172 A 
ATOM      2  C3  UNL     1     -80.877  56.741  22.000  0.00  0.00    +0.040 A 
ATOM      3  C4  UNL     1     -82.242  56.464  22.104  0.00  0.00    +0.005 A 
ATOM      4  C5  UNL     1     -82.869  55.604  21.188  0.00  0.00    +0.019 A 
ATOM      5  C18 UNL     1     -82.094  55.049  20.152  0.00  0.00    +0.041 A 
ATOM      6  C19 UNL     1     -80.713  55.303  20.054  0.00  0.00    +0.172 A 
ENDROOT
BRANCH   4   7
ATOM      7  C6  UNL     1     -84.312  55.234  21.283  0.00  0.00    +0.086 C 
ATOM      8  N1  UNL     1     -84.790  54.252  20.587  0.00  0.00    -0.171 NA
ATOM      9  N2  UNL     1     -86.141  54.071  20.868  0.00  0.00    -0.222 N 
ATOM     10  C14 UNL     1     -86.532  54.941  21.740  0.00  0.00    +0.257 C 
ATOM     11  O2  UNL     1     -87.840  55.014  22.217  0.00  0.00    -0.270 OA
ATOM     12  C15 UNL     1     -85.398  55.835  22.164  0.00  0.00    +0.110 C 
ATOM     13  C16 UNL     1     -85.717  57.293  21.798  0.00  0.00    +0.015 C 
ATOM     14  C17 UNL     1     -85.122  55.639  23.665  0.00  0.00    +0.015 C 
BRANCH   9  15
ATOM     15  C7  UNL     1     -86.952  53.008  20.259  0.00  0.00    +0.108 C 
ATOM     16  C8  UNL     1     -86.525  52.821  18.786  0.00  0.00    +0.024 C 
ATOM     17  C9  UNL     1     -87.050  51.528  18.140  0.00  0.00    +0.002 C 
ATOM     18  C10 UNL     1     -86.075  50.353  18.318  0.00  0.00    +0.000 C 
ATOM     19  C11 UNL     1     -86.067  49.762  19.733  0.00  0.00    +0.000 C 
ATOM     20  C12 UNL     1     -85.714  50.783  20.826  0.00  0.00    +0.002 C 
ATOM     21  C13 UNL     1     -86.886  51.733  21.137  0.00  0.00    +0.024 C 
ENDBRANCH   9  15
ENDBRANCH   4   7
BRANCH   1  23
ATOM     22  C1  UNL     1     -77.904  56.948  21.879  0.00  0.00    +0.253 C 
ATOM     23  O1  UNL     1     -78.729  56.417  20.846  0.00  0.00    -0.468 OA
ENDBRANCH   1  23
BRANCH   6  24
ATOM     24  O3  UNL     1     -79.913  54.720  19.054  0.00  0.00    -0.472 OA
BRANCH  24  25
ATOM     25  C20 UNL     1     -79.445  53.369  19.051  0.00  0.00    +0.206 C 
BRANCH  25  26
ATOM     26  C21 UNL     1     -78.753  53.023  20.378  0.00  0.00    +0.051 C 
BRANCH  26  27
ATOM     27  C22 UNL     1     -77.271  53.409  20.337  0.00  0.00    +0.051 C 
BRANCH  27  28
ATOM     28  C23 UNL     1     -76.601  53.174  21.695  0.00  0.00    +0.206 C 
BRANCH  28  29
ATOM     29  O4  UNL     1     -75.870  54.332  22.098  0.00  0.00    -0.475 OA
BRANCH  29  30
ATOM     30  C24 UNL     1     -75.029  54.410  23.222  0.00  0.00    +0.139 A 
ATOM     31  C25 UNL     1     -75.436  54.008  24.508  0.00  0.00    +0.037 A 
ATOM     32  C26 UNL     1     -74.559  54.108  25.592  0.00  0.00    +0.006 A 
ATOM     33  C27 UNL     1     -73.256  54.606  25.414  0.00  0.00    +0.040 A 
ATOM     34  C29 UNL     1     -72.852  55.002  24.127  0.00  0.00    +0.006 A 
ATOM     35  C30 UNL     1     -73.732  54.903  23.044  0.00  0.00    +0.037 A 
BRANCH  33  36
ATOM     36  C28 UNL     1     -72.325  54.711  26.564  0.00  0.00    +0.208 A 
ATOM     37  N3  UNL     1     -72.132  55.819  27.314  0.00  0.00    -0.106 NA
ATOM     38  N4  UNL     1     -71.223  55.486  28.217  0.00  0.00    -0.021 NA
ATOM     39  N5  UNL     1     -70.867  54.225  28.042  0.00  0.00    -0.021 NA
ATOM     40  N6  UNL     1     -71.535  53.715  27.020  0.00  0.00    -0.106 NA
ENDBRANCH  33  36
ENDBRANCH  29  30
ENDBRANCH  28  29
ENDBRANCH  27  28
ENDBRANCH  26  27
ENDBRANCH  25  26
ENDBRANCH  24  25
ENDBRANCH   6  24
TORSDOF 11
ENDMDL
