MODEL 1
REMARK VINA RESULT:      -7.1      0.000      0.000
REMARK  Name = ./data/4wxx_site_bc02/pdb/l1c1.pdb
REMARK  11 active torsions:
REMARK  status: ('A' for Active; 'I' for Inactive)
REMARK    1  A    between atoms: O1_2  and  C2_3
REMARK    2  A    between atoms: C5_6  and  C6_7
REMARK    3  A    between atoms: N2_9  and  C7_10
REMARK    4  A    between atoms: C22_26  and  O3_27
REMARK    5  A    between atoms: O3_27  and  C23_28
REMARK    6  A    between atoms: C23_28  and  C24_29
REMARK    7  A    between atoms: C24_29  and  C25_30
REMARK    8  A    between atoms: C25_30  and  C26_31
REMARK    9  A    between atoms: C26_31  and  O4_32
REMARK   10  A    between atoms: O4_32  and  C27_33
REMARK   11  A    between atoms: C30_36  and  C31_37
REMARK                            x       y       z     vdW  Elec       q    Type
REMARK                         _______ _______ _______ _____ _____    ______ ____
ROOT
ATOM      1  C2  UNL     1     -39.555  33.677  -7.265  0.00  0.00    +0.172 A 
ATOM      2  C3  UNL     1     -40.171  34.404  -6.231  0.00  0.00    +0.040 A 
ATOM      3  C4  UNL     1     -41.436  34.043  -5.766  0.00  0.00    +0.005 A 
ATOM      4  C5  UNL     1     -42.116  32.938  -6.311  0.00  0.00    +0.018 A 
ATOM      5  C21 UNL     1     -41.486  32.204  -7.336  0.00  0.00    +0.041 A 
ATOM      6  C22 UNL     1     -40.220  32.578  -7.826  0.00  0.00    +0.172 A 
ENDROOT
BRANCH   4   7
ATOM      7  C6  UNL     1     -43.482  32.543  -5.845  0.00  0.00    +0.079 C 
ATOM      8  N1  UNL     1     -44.476  32.690  -6.665  0.00  0.00    -0.172 NA
ATOM      9  N2  UNL     1     -45.823  32.413  -6.365  0.00  0.00    -0.222 N 
ATOM     10  C14 UNL     1     -46.165  31.816  -5.247  0.00  0.00    +0.253 C 
ATOM     11  O2  UNL     1     -47.499  31.456  -5.033  0.00  0.00    -0.271 OA
ATOM     12  C15 UNL     1     -45.131  31.442  -4.197  0.00  0.00    +0.091 C 
ATOM     13  C16 UNL     1     -45.711  31.682  -2.764  0.00  0.00    +0.035 C 
ATOM     14  C17 UNL     1     -44.664  32.020  -1.737  0.00  0.00    -0.030 C 
ATOM     15  C18 UNL     1     -43.669  32.855  -2.053  0.00  0.00    -0.030 C 
ATOM     16  C19 UNL     1     -43.537  33.329  -3.469  0.00  0.00    +0.032 C 
ATOM     17  C20 UNL     1     -43.739  32.126  -4.414  0.00  0.00    +0.056 C 
BRANCH   9  18
ATOM     18  C7  UNL     1     -46.805  32.771  -7.413  0.00  0.00    +0.108 C 
ATOM     19  C8  UNL     1     -46.511  34.181  -7.976  0.00  0.00    +0.024 C 
ATOM     20  C9  UNL     1     -47.709  34.816  -8.694  0.00  0.00    +0.002 C 
ATOM     21  C10 UNL     1     -48.221  33.991  -9.885  0.00  0.00    +0.000 C 
ATOM     22  C11 UNL     1     -49.059  32.780  -9.439  0.00  0.00    +0.000 C 
ATOM     23  C12 UNL     1     -48.248  31.501  -9.156  0.00  0.00    +0.002 C 
ATOM     24  C13 UNL     1     -46.856  31.695  -8.526  0.00  0.00    +0.024 C 
ENDBRANCH   9  18
ENDBRANCH   4   7
BRANCH   1  26
ATOM     25  C1  UNL     1     -37.093  34.030  -6.985  0.00  0.00    +0.253 C 
ATOM     26  O1  UNL     1     -38.286  34.016  -7.763  0.00  0.00    -0.468 OA
ENDBRANCH   1  26
BRANCH   6  27
ATOM     27  O3  UNL     1     -39.592  31.887  -8.875  0.00  0.00    -0.472 OA
BRANCH  27  28
ATOM     28  C23 UNL     1     -39.938  32.015 -10.253  0.00  0.00    +0.206 C 
BRANCH  28  29
ATOM     29  C24 UNL     1     -40.174  33.486 -10.601  0.00  0.00    +0.051 C 
BRANCH  29  30
ATOM     30  C25 UNL     1     -40.130  33.713 -12.119  0.00  0.00    +0.051 C 
BRANCH  30  31
ATOM     31  C26 UNL     1     -39.985  35.194 -12.465  0.00  0.00    +0.206 C 
BRANCH  31  32
ATOM     32  O4  UNL     1     -38.742  35.430 -13.122  0.00  0.00    -0.475 OA
BRANCH  32  33
ATOM     33  C27 UNL     1     -37.486  35.244 -12.521  0.00  0.00    +0.139 A 
ATOM     34  C28 UNL     1     -37.162  35.794 -11.266  0.00  0.00    +0.037 A 
ATOM     35  C29 UNL     1     -35.901  35.578 -10.705  0.00  0.00    +0.006 A 
ATOM     36  C30 UNL     1     -34.938  34.803 -11.379  0.00  0.00    +0.040 A 
ATOM     37  C32 UNL     1     -35.269  34.258 -12.633  0.00  0.00    +0.006 A 
ATOM     38  C33 UNL     1     -36.529  34.483 -13.197  0.00  0.00    +0.037 A 
BRANCH  36  39
ATOM     39  C31 UNL     1     -33.601  34.563 -10.772  0.00  0.00    +0.208 A 
ATOM     40  N3  UNL     1     -32.453  35.167 -11.149  0.00  0.00    -0.106 NA
ATOM     41  N4  UNL     1     -31.513  34.684 -10.353  0.00  0.00    -0.021 NA
ATOM     42  N5  UNL     1     -32.048  33.814  -9.515  0.00  0.00    -0.021 NA
ATOM     43  N6  UNL     1     -33.347  33.716  -9.749  0.00  0.00    -0.106 NA
ENDBRANCH  36  39
ENDBRANCH  32  33
ENDBRANCH  31  32
ENDBRANCH  30  31
ENDBRANCH  29  30
ENDBRANCH  28  29
ENDBRANCH  27  28
ENDBRANCH   6  27
TORSDOF 11
ENDMDL
MODEL 2
REMARK VINA RESULT:      -6.5      3.054      4.903
REMARK  Name = ./data/4wxx_site_bc02/pdb/l1c1.pdb
REMARK  11 active torsions:
REMARK  status: ('A' for Active; 'I' for Inactive)
REMARK    1  A    between atoms: O1_2  and  C2_3
REMARK    2  A    between atoms: C5_6  and  C6_7
REMARK    3  A    between atoms: N2_9  and  C7_10
REMARK    4  A    between atoms: C22_26  and  O3_27
REMARK    5  A    between atoms: O3_27  and  C23_28
REMARK    6  A    between atoms: C23_28  and  C24_29
REMARK    7  A    between atoms: C24_29  and  C25_30
REMARK    8  A    between atoms: C25_30  and  C26_31
REMARK    9  A    between atoms: C26_31  and  O4_32
REMARK   10  A    between atoms: O4_32  and  C27_33
REMARK   11  A    between atoms: C30_36  and  C31_37
REMARK                            x       y       z     vdW  Elec       q    Type
REMARK                         _______ _______ _______ _____ _____    ______ ____
ROOT
ATOM      1  C2  UNL     1     -41.050  36.097  -5.058  0.00  0.00    +0.172 A 
ATOM      2  C3  UNL     1     -42.442  36.252  -4.937  0.00  0.00    +0.040 A 
ATOM      3  C4  UNL     1     -43.310  35.286  -5.448  0.00  0.00    +0.005 A 
ATOM      4  C5  UNL     1     -42.812  34.132  -6.082  0.00  0.00    +0.018 A 
ATOM      5  C21 UNL     1     -41.415  33.976  -6.185  0.00  0.00    +0.041 A 
ATOM      6  C22 UNL     1     -40.534  34.958  -5.693  0.00  0.00    +0.172 A 
ENDROOT
BRANCH   4   7
ATOM      7  C6  UNL     1     -43.722  33.092  -6.656  0.00  0.00    +0.079 C 
ATOM      8  N1  UNL     1     -44.875  32.905  -6.091  0.00  0.00    -0.172 NA
ATOM      9  N2  UNL     1     -45.820  31.937  -6.478  0.00  0.00    -0.222 N 
ATOM     10  C14 UNL     1     -45.667  31.233  -7.574  0.00  0.00    +0.253 C 
ATOM     11  O2  UNL     1     -46.680  30.361  -7.986  0.00  0.00    -0.271 OA
ATOM     12  C15 UNL     1     -44.437  31.389  -8.454  0.00  0.00    +0.091 C 
ATOM     13  C16 UNL     1     -43.994  29.994  -9.008  0.00  0.00    +0.035 C 
ATOM     14  C17 UNL     1     -42.516  29.891  -9.272  0.00  0.00    -0.030 C 
ATOM     15  C18 UNL     1     -41.648  30.417  -8.402  0.00  0.00    -0.030 C 
ATOM     16  C19 UNL     1     -42.167  31.223  -7.250  0.00  0.00    +0.032 C 
ATOM     17  C20 UNL     1     -43.268  32.172  -7.767  0.00  0.00    +0.056 C 
BRANCH   9  18
ATOM     18  C7  UNL     1     -47.016  31.821  -5.612  0.00  0.00    +0.108 C 
ATOM     19  C8  UNL     1     -46.619  31.907  -4.120  0.00  0.00    +0.024 C 
ATOM     20  C9  UNL     1     -47.679  31.336  -3.170  0.00  0.00    +0.002 C 
ATOM     21  C10 UNL     1     -49.044  32.034  -3.278  0.00  0.00    +0.000 C 
ATOM     22  C11 UNL     1     -49.833  31.584  -4.520  0.00  0.00    +0.000 C 
ATOM     23  C12 UNL     1     -49.540  32.390  -5.800  0.00  0.00    +0.002 C 
ATOM     24  C13 UNL     1     -48.089  32.869  -5.994  0.00  0.00    +0.024 C 
ENDBRANCH   9  18
ENDBRANCH   4   7
BRANCH   1  26
ATOM     25  C1  UNL     1     -39.877  37.264  -3.180  0.00  0.00    +0.253 C 
ATOM     26  O1  UNL     1     -40.147  37.052  -4.562  0.00  0.00    -0.468 OA
ENDBRANCH   1  26
BRANCH   6  27
ATOM     27  O3  UNL     1     -39.141  34.844  -5.822  0.00  0.00    -0.472 OA
BRANCH  27  28
ATOM     28  C23 UNL     1     -38.480  33.915  -6.678  0.00  0.00    +0.206 C 
BRANCH  28  29
ATOM     29  C24 UNL     1     -37.630  32.949  -5.850  0.00  0.00    +0.051 C 
BRANCH  29  30
ATOM     30  C25 UNL     1     -37.602  31.549  -6.481  0.00  0.00    +0.051 C 
BRANCH  30  31
ATOM     31  C26 UNL     1     -36.205  31.183  -6.978  0.00  0.00    +0.206 C 
BRANCH  31  32
ATOM     32  O4  UNL     1     -36.156  31.236  -8.402  0.00  0.00    -0.475 OA
BRANCH  32  33
ATOM     33  C27 UNL     1     -36.719  32.268  -9.171  0.00  0.00    +0.139 A 
ATOM     34  C28 UNL     1     -37.964  32.135  -9.814  0.00  0.00    +0.037 A 
ATOM     35  C29 UNL     1     -38.488  33.191 -10.564  0.00  0.00    +0.006 A 
ATOM     36  C30 UNL     1     -37.785  34.404 -10.685  0.00  0.00    +0.040 A 
ATOM     37  C32 UNL     1     -36.540  34.529 -10.040  0.00  0.00    +0.006 A 
ATOM     38  C33 UNL     1     -36.014  33.468  -9.296  0.00  0.00    +0.037 A 
BRANCH  36  39
ATOM     39  C31 UNL     1     -38.352  35.532 -11.472  0.00  0.00    +0.208 A 
ATOM     40  N3  UNL     1     -37.655  36.599 -11.921  0.00  0.00    -0.106 NA
ATOM     41  N4  UNL     1     -38.525  37.347 -12.578  0.00  0.00    -0.021 NA
ATOM     42  N5  UNL     1     -39.715  36.776 -12.543  0.00  0.00    -0.021 NA
ATOM     43  N6  UNL     1     -39.642  35.644 -11.862  0.00  0.00    -0.106 NA
ENDBRANCH  36  39
ENDBRANCH  32  33
ENDBRANCH  31  32
ENDBRANCH  30  31
ENDBRANCH  29  30
ENDBRANCH  28  29
ENDBRANCH  27  28
ENDBRANCH   6  27
TORSDOF 11
ENDMDL
MODEL 3
REMARK VINA RESULT:      -6.0      3.844      5.601
REMARK  Name = ./data/4wxx_site_bc02/pdb/l1c1.pdb
REMARK  11 active torsions:
REMARK  status: ('A' for Active; 'I' for Inactive)
REMARK    1  A    between atoms: O1_2  and  C2_3
REMARK    2  A    between atoms: C5_6  and  C6_7
REMARK    3  A    between atoms: N2_9  and  C7_10
REMARK    4  A    between atoms: C22_26  and  O3_27
REMARK    5  A    between atoms: O3_27  and  C23_28
REMARK    6  A    between atoms: C23_28  and  C24_29
REMARK    7  A    between atoms: C24_29  and  C25_30
REMARK    8  A    between atoms: C25_30  and  C26_31
REMARK    9  A    between atoms: C26_31  and  O4_32
REMARK   10  A    between atoms: O4_32  and  C27_33
REMARK   11  A    between atoms: C30_36  and  C31_37
REMARK                            x       y       z     vdW  Elec       q    Type
REMARK                         _______ _______ _______ _____ _____    ______ ____
ROOT
ATOM      1  C2  UNL     1     -41.488  35.922  -5.008  0.00  0.00    +0.172 A 
ATOM      2  C3  UNL     1     -42.869  35.978  -4.752  0.00  0.00    +0.040 A 
ATOM      3  C4  UNL     1     -43.724  34.993  -5.250  0.00  0.00    +0.005 A 
ATOM      4  C5  UNL     1     -43.221  33.917  -6.005  0.00  0.00    +0.018 A 
ATOM      5  C21 UNL     1     -41.833  33.859  -6.244  0.00  0.00    +0.041 A 
ATOM      6  C22 UNL     1     -40.969  34.863  -5.764  0.00  0.00    +0.172 A 
ENDROOT
BRANCH   4   7
ATOM      7  C6  UNL     1     -44.117  32.860  -6.568  0.00  0.00    +0.079 C 
ATOM      8  N1  UNL     1     -45.207  32.573  -5.924  0.00  0.00    -0.172 NA
ATOM      9  N2  UNL     1     -46.128  31.575  -6.292  0.00  0.00    -0.222 N 
ATOM     10  C14 UNL     1     -46.029  30.944  -7.439  0.00  0.00    +0.253 C 
ATOM     11  O2  UNL     1     -47.024  30.039  -7.820  0.00  0.00    -0.271 OA
ATOM     12  C15 UNL     1     -44.888  31.223  -8.403  0.00  0.00    +0.091 C 
ATOM     13  C16 UNL     1     -44.418  29.891  -9.076  0.00  0.00    +0.035 C 
ATOM     14  C17 UNL     1     -42.964  29.890  -9.465  0.00  0.00    -0.030 C 
ATOM     15  C18 UNL     1     -42.055  30.416  -8.637  0.00  0.00    -0.030 C 
ATOM     16  C19 UNL     1     -42.519  31.123  -7.399  0.00  0.00    +0.032 C 
ATOM     17  C20 UNL     1     -43.710  32.033  -7.766  0.00  0.00    +0.056 C 
BRANCH   9  18
ATOM     18  C7  UNL     1     -47.238  31.338  -5.342  0.00  0.00    +0.108 C 
ATOM     19  C8  UNL     1     -46.695  30.841  -3.982  0.00  0.00    +0.024 C 
ATOM     20  C9  UNL     1     -47.751  30.135  -3.122  0.00  0.00    +0.002 C 
ATOM     21  C10 UNL     1     -48.964  31.017  -2.788  0.00  0.00    +0.000 C 
ATOM     22  C11 UNL     1     -49.936  31.147  -3.974  0.00  0.00    +0.000 C 
ATOM     23  C12 UNL     1     -49.617  32.298  -4.948  0.00  0.00    +0.002 C 
ATOM     24  C13 UNL     1     -48.126  32.598  -5.192  0.00  0.00    +0.024 C 
ENDBRANCH   9  18
ENDBRANCH   4   7
BRANCH   1  26
ATOM     25  C1  UNL     1     -40.085  36.939  -3.202  0.00  0.00    +0.253 C 
ATOM     26  O1  UNL     1     -40.600  36.899  -4.528  0.00  0.00    -0.468 OA
ENDBRANCH   1  26
BRANCH   6  27
ATOM     27  O3  UNL     1     -39.590  34.848  -6.026  0.00  0.00    -0.472 OA
BRANCH  27  28
ATOM     28  C23 UNL     1     -38.929  33.881  -6.840  0.00  0.00    +0.206 C 
BRANCH  28  29
ATOM     29  C24 UNL     1     -37.534  33.590  -6.284  0.00  0.00    +0.051 C 
BRANCH  29  30
ATOM     30  C25 UNL     1     -37.094  32.155  -6.607  0.00  0.00    +0.051 C 
BRANCH  30  31
ATOM     31  C26 UNL     1     -35.797  32.130  -7.415  0.00  0.00    +0.206 C 
BRANCH  31  32
ATOM     32  O4  UNL     1     -36.001  31.464  -8.659  0.00  0.00    -0.475 OA
BRANCH  32  33
ATOM     33  C27 UNL     1     -37.117  31.667  -9.486  0.00  0.00    +0.139 A 
ATOM     34  C28 UNL     1     -37.405  32.914 -10.072  0.00  0.00    +0.037 A 
ATOM     35  C29 UNL     1     -38.525  33.067 -10.893  0.00  0.00    +0.006 A 
ATOM     36  C30 UNL     1     -39.379  31.978 -11.154  0.00  0.00    +0.040 A 
ATOM     37  C32 UNL     1     -39.085  30.735 -10.563  0.00  0.00    +0.006 A 
ATOM     38  C33 UNL     1     -37.968  30.586  -9.735  0.00  0.00    +0.037 A 
BRANCH  36  39
ATOM     39  C31 UNL     1     -40.562  32.140 -12.040  0.00  0.00    +0.208 A 
ATOM     40  N3  UNL     1     -41.372  31.139 -12.452  0.00  0.00    -0.106 NA
ATOM     41  N4  UNL     1     -42.296  31.711 -13.205  0.00  0.00    -0.021 NA
ATOM     42  N5  UNL     1     -42.077  33.012 -13.264  0.00  0.00    -0.021 NA
ATOM     43  N6  UNL     1     -41.005  33.313 -12.549  0.00  0.00    -0.106 NA
ENDBRANCH  36  39
ENDBRANCH  32  33
ENDBRANCH  31  32
ENDBRANCH  30  31
ENDBRANCH  29  30
ENDBRANCH  28  29
ENDBRANCH  27  28
ENDBRANCH   6  27
TORSDOF 11
ENDMDL
MODEL 4
REMARK VINA RESULT:      -5.7      1.618      4.682
REMARK  Name = ./data/4wxx_site_bc02/pdb/l1c1.pdb
REMARK  11 active torsions:
REMARK  status: ('A' for Active; 'I' for Inactive)
REMARK    1  A    between atoms: O1_2  and  C2_3
REMARK    2  A    between atoms: C5_6  and  C6_7
REMARK    3  A    between atoms: N2_9  and  C7_10
REMARK    4  A    between atoms: C22_26  and  O3_27
REMARK    5  A    between atoms: O3_27  and  C23_28
REMARK    6  A    between atoms: C23_28  and  C24_29
REMARK    7  A    between atoms: C24_29  and  C25_30
REMARK    8  A    between atoms: C25_30  and  C26_31
REMARK    9  A    between atoms: C26_31  and  O4_32
REMARK   10  A    between atoms: O4_32  and  C27_33
REMARK   11  A    between atoms: C30_36  and  C31_37
REMARK                            x       y       z     vdW  Elec       q    Type
REMARK                         _______ _______ _______ _____ _____    ______ ____
ROOT
ATOM      1  C2  UNL     1     -41.961  30.291 -10.618  0.00  0.00    +0.172 A 
ATOM      2  C3  UNL     1     -43.290  29.996 -10.966  0.00  0.00    +0.040 A 
ATOM      3  C4  UNL     1     -44.345  30.400 -10.146  0.00  0.00    +0.005 A 
ATOM      4  C5  UNL     1     -44.102  31.122  -8.963  0.00  0.00    +0.018 A 
ATOM      5  C21 UNL     1     -42.768  31.429  -8.629  0.00  0.00    +0.041 A 
ATOM      6  C22 UNL     1     -41.697  31.003  -9.440  0.00  0.00    +0.172 A 
ENDROOT
BRANCH   4   7
ATOM      7  C6  UNL     1     -45.213  31.548  -8.056  0.00  0.00    +0.079 C 
ATOM      8  N1  UNL     1     -44.985  31.577  -6.779  0.00  0.00    -0.172 NA
ATOM      9  N2  UNL     1     -45.934  31.907  -5.793  0.00  0.00    -0.222 N 
ATOM     10  C14 UNL     1     -47.117  32.378  -6.114  0.00  0.00    +0.253 C 
ATOM     11  O2  UNL     1     -47.991  32.800  -5.107  0.00  0.00    -0.271 OA
ATOM     12  C15 UNL     1     -47.540  32.542  -7.564  0.00  0.00    +0.091 C 
ATOM     13  C16 UNL     1     -49.049  32.163  -7.728  0.00  0.00    +0.035 C 
ATOM     14  C17 UNL     1     -49.392  31.624  -9.091  0.00  0.00    -0.030 C 
ATOM     15  C18 UNL     1     -48.562  30.770  -9.696  0.00  0.00    -0.030 C 
ATOM     16  C19 UNL     1     -47.235  30.472  -9.064  0.00  0.00    +0.032 C 
ATOM     17  C20 UNL     1     -46.610  31.796  -8.579  0.00  0.00    +0.056 C 
BRANCH   9  18
ATOM     18  C7  UNL     1     -45.487  31.754  -4.390  0.00  0.00    +0.108 C 
ATOM     19  C8  UNL     1     -45.706  30.303  -3.903  0.00  0.00    +0.024 C 
ATOM     20  C9  UNL     1     -45.724  30.166  -2.375  0.00  0.00    +0.002 C 
ATOM     21  C10 UNL     1     -44.428  30.640  -1.699  0.00  0.00    +0.000 C 
ATOM     22  C11 UNL     1     -44.340  32.174  -1.616  0.00  0.00    +0.000 C 
ATOM     23  C12 UNL     1     -43.712  32.853  -2.849  0.00  0.00    +0.002 C 
ATOM     24  C13 UNL     1     -44.019  32.214  -4.216  0.00  0.00    +0.024 C 
ENDBRANCH   9  18
ENDBRANCH   4   7
BRANCH   1  26
ATOM     25  C1  UNL     1     -40.857  29.948 -12.838  0.00  0.00    +0.253 C 
ATOM     26  O1  UNL     1     -40.875  29.894 -11.416  0.00  0.00    -0.468 OA
ENDBRANCH   1  26
BRANCH   6  27
ATOM     27  O3  UNL     1     -40.359  31.260  -9.104  0.00  0.00    -0.472 OA
BRANCH  27  28
ATOM     28  C23 UNL     1     -39.720  32.529  -9.231  0.00  0.00    +0.206 C 
BRANCH  28  29
ATOM     29  C24 UNL     1     -40.318  33.304 -10.406  0.00  0.00    +0.051 C 
BRANCH  29  30
ATOM     30  C25 UNL     1     -39.386  34.438 -10.858  0.00  0.00    +0.051 C 
BRANCH  30  31
ATOM     31  C26 UNL     1     -39.715  34.908 -12.274  0.00  0.00    +0.206 C 
BRANCH  31  32
ATOM     32  O4  UNL     1     -38.521  35.269 -12.966  0.00  0.00    -0.475 OA
BRANCH  32  33
ATOM     33  C27 UNL     1     -37.231  35.152 -12.424  0.00  0.00    +0.139 A 
ATOM     34  C28 UNL     1     -36.774  35.980 -11.381  0.00  0.00    +0.037 A 
ATOM     35  C29 UNL     1     -35.484  35.825 -10.869  0.00  0.00    +0.006 A 
ATOM     36  C30 UNL     1     -34.623  34.835 -11.381  0.00  0.00    +0.040 A 
ATOM     37  C32 UNL     1     -35.086  34.012 -12.424  0.00  0.00    +0.006 A 
ATOM     38  C33 UNL     1     -36.375  34.176 -12.941  0.00  0.00    +0.037 A 
BRANCH  36  39
ATOM     39  C31 UNL     1     -33.254  34.662 -10.824  0.00  0.00    +0.208 A 
ATOM     40  N3  UNL     1     -32.197  35.461 -11.089  0.00  0.00    -0.106 NA
ATOM     41  N4  UNL     1     -31.189  34.968 -10.388  0.00  0.00    -0.021 NA
ATOM     42  N5  UNL     1     -31.595  33.907  -9.715  0.00  0.00    -0.021 NA
ATOM     43  N6  UNL     1     -32.876  33.689  -9.963  0.00  0.00    -0.106 NA
ENDBRANCH  36  39
ENDBRANCH  32  33
ENDBRANCH  31  32
ENDBRANCH  30  31
ENDBRANCH  29  30
ENDBRANCH  28  29
ENDBRANCH  27  28
ENDBRANCH   6  27
TORSDOF 11
ENDMDL
MODEL 5
REMARK VINA RESULT:      -4.9      2.096      5.124
REMARK  Name = ./data/4wxx_site_bc02/pdb/l1c1.pdb
REMARK  11 active torsions:
REMARK  status: ('A' for Active; 'I' for Inactive)
REMARK    1  A    between atoms: O1_2  and  C2_3
REMARK    2  A    between atoms: C5_6  and  C6_7
REMARK    3  A    between atoms: N2_9  and  C7_10
REMARK    4  A    between atoms: C22_26  and  O3_27
REMARK    5  A    between atoms: O3_27  and  C23_28
REMARK    6  A    between atoms: C23_28  and  C24_29
REMARK    7  A    between atoms: C24_29  and  C25_30
REMARK    8  A    between atoms: C25_30  and  C26_31
REMARK    9  A    between atoms: C26_31  and  O4_32
REMARK   10  A    between atoms: O4_32  and  C27_33
REMARK   11  A    between atoms: C30_36  and  C31_37
REMARK                            x       y       z     vdW  Elec       q    Type
REMARK                         _______ _______ _______ _____ _____    ______ ____
ROOT
ATOM      1  C2  UNL     1     -40.465  30.902  -9.992  0.00  0.00    +0.172 A 
ATOM      2  C3  UNL     1     -41.660  30.409 -10.544  0.00  0.00    +0.040 A 
ATOM      3  C4  UNL     1     -42.879  30.619  -9.899  0.00  0.00    +0.005 A 
ATOM      4  C5  UNL     1     -42.941  31.339  -8.691  0.00  0.00    +0.018 A 
ATOM      5  C21 UNL     1     -41.741  31.845  -8.152  0.00  0.00    +0.041 A 
ATOM      6  C22 UNL     1     -40.504  31.615  -8.786  0.00  0.00    +0.172 A 
ENDROOT
BRANCH   4   7
ATOM      7  C6  UNL     1     -44.232  31.561  -7.968  0.00  0.00    +0.079 C 
ATOM      8  N1  UNL     1     -44.214  31.576  -6.671  0.00  0.00    -0.172 NA
ATOM      9  N2  UNL     1     -45.345  31.723  -5.846  0.00  0.00    -0.222 N 
ATOM     10  C14 UNL     1     -46.521  32.023  -6.345  0.00  0.00    +0.253 C 
ATOM     11  O2  UNL     1     -47.596  32.272  -5.487  0.00  0.00    -0.271 OA
ATOM     12  C15 UNL     1     -46.732  32.176  -7.843  0.00  0.00    +0.091 C 
ATOM     13  C16 UNL     1     -48.121  31.581  -8.251  0.00  0.00    +0.035 C 
ATOM     14  C17 UNL     1     -48.160  31.047  -9.658  0.00  0.00    -0.030 C 
ATOM     15  C18 UNL     1     -47.123  30.350 -10.133  0.00  0.00    -0.030 C 
ATOM     16  C19 UNL     1     -45.881  30.231  -9.301  0.00  0.00    +0.032 C 
ATOM     17  C20 UNL     1     -45.551  31.616  -8.705  0.00  0.00    +0.056 C 
BRANCH   9  18
ATOM     18  C7  UNL     1     -45.104  31.587  -4.391  0.00  0.00    +0.108 C 
ATOM     19  C8  UNL     1     -45.213  30.107  -3.956  0.00  0.00    +0.024 C 
ATOM     20  C9  UNL     1     -45.450  29.926  -2.451  0.00  0.00    +0.002 C 
ATOM     21  C10 UNL     1     -44.344  30.536  -1.577  0.00  0.00    +0.000 C 
ATOM     22  C11 UNL     1     -44.462  32.066  -1.469  0.00  0.00    +0.000 C 
ATOM     23  C12 UNL     1     -43.740  32.851  -2.581  0.00  0.00    +0.002 C 
ATOM     24  C13 UNL     1     -43.749  32.218  -3.985  0.00  0.00    +0.024 C 
ENDBRANCH   9  18
ENDBRANCH   4   7
BRANCH   1  26
ATOM     25  C1  UNL     1     -38.732  31.471 -11.706  0.00  0.00    +0.253 C 
ATOM     26  O1  UNL     1     -39.219  30.703 -10.611  0.00  0.00    -0.468 OA
ENDBRANCH   1  26
BRANCH   6  27
ATOM     27  O3  UNL     1     -39.292  32.072  -8.245  0.00  0.00    -0.472 OA
BRANCH  27  28
ATOM     28  C23 UNL     1     -38.346  31.249  -7.565  0.00  0.00    +0.206 C 
BRANCH  28  29
ATOM     29  C24 UNL     1     -37.795  31.983  -6.341  0.00  0.00    +0.051 C 
BRANCH  29  30
ATOM     30  C25 UNL     1     -38.286  33.438  -6.296  0.00  0.00    +0.051 C 
BRANCH  30  31
ATOM     31  C26 UNL     1     -37.171  34.421  -6.650  0.00  0.00    +0.206 C 
BRANCH  31  32
ATOM     32  O4  UNL     1     -35.947  33.724  -6.870  0.00  0.00    -0.475 OA
BRANCH  32  33
ATOM     33  C27 UNL     1     -35.215  33.776  -8.067  0.00  0.00    +0.139 A 
ATOM     34  C28 UNL     1     -35.604  34.582  -9.154  0.00  0.00    +0.037 A 
ATOM     35  C29 UNL     1     -34.841  34.606 -10.324  0.00  0.00    +0.006 A 
ATOM     36  C30 UNL     1     -33.669  33.833 -10.434  0.00  0.00    +0.040 A 
ATOM     37  C32 UNL     1     -33.287  33.029  -9.344  0.00  0.00    +0.006 A 
ATOM     38  C33 UNL     1     -34.057  33.000  -8.176  0.00  0.00    +0.037 A 
BRANCH  36  39
ATOM     39  C31 UNL     1     -32.851  33.872 -11.675  0.00  0.00    +0.208 A 
ATOM     40  N3  UNL     1     -31.584  34.335 -11.760  0.00  0.00    -0.106 NA
ATOM     41  N4  UNL     1     -31.228  34.178 -13.024  0.00  0.00    -0.021 NA
ATOM     42  N5  UNL     1     -32.227  33.643 -13.703  0.00  0.00    -0.021 NA
ATOM     43  N6  UNL     1     -33.252  33.439 -12.892  0.00  0.00    -0.106 NA
ENDBRANCH  36  39
ENDBRANCH  32  33
ENDBRANCH  31  32
ENDBRANCH  30  31
ENDBRANCH  29  30
ENDBRANCH  28  29
ENDBRANCH  27  28
ENDBRANCH   6  27
TORSDOF 11
ENDMDL
MODEL 6
REMARK VINA RESULT:      -4.2      2.731      4.304
REMARK  Name = ./data/4wxx_site_bc02/pdb/l1c1.pdb
REMARK  11 active torsions:
REMARK  status: ('A' for Active; 'I' for Inactive)
REMARK    1  A    between atoms: O1_2  and  C2_3
REMARK    2  A    between atoms: C5_6  and  C6_7
REMARK    3  A    between atoms: N2_9  and  C7_10
REMARK    4  A    between atoms: C22_26  and  O3_27
REMARK    5  A    between atoms: O3_27  and  C23_28
REMARK    6  A    between atoms: C23_28  and  C24_29
REMARK    7  A    between atoms: C24_29  and  C25_30
REMARK    8  A    between atoms: C25_30  and  C26_31
REMARK    9  A    between atoms: C26_31  and  O4_32
REMARK   10  A    between atoms: O4_32  and  C27_33
REMARK   11  A    between atoms: C30_36  and  C31_37
REMARK                            x       y       z     vdW  Elec       q    Type
REMARK                         _______ _______ _______ _____ _____    ______ ____
ROOT
ATOM      1  C2  UNL     1     -41.204  36.042  -4.898  0.00  0.00    +0.172 A 
ATOM      2  C3  UNL     1     -42.585  36.161  -4.664  0.00  0.00    +0.040 A 
ATOM      3  C4  UNL     1     -43.471  35.192  -5.138  0.00  0.00    +0.005 A 
ATOM      4  C5  UNL     1     -43.001  34.070  -5.846  0.00  0.00    +0.018 A 
ATOM      5  C21 UNL     1     -41.613  33.949  -6.062  0.00  0.00    +0.041 A 
ATOM      6  C22 UNL     1     -40.717  34.936  -5.607  0.00  0.00    +0.172 A 
ENDROOT
BRANCH   4   7
ATOM      7  C6  UNL     1     -43.931  33.028  -6.382  0.00  0.00    +0.079 C 
ATOM      8  N1  UNL     1     -45.042  32.812  -5.747  0.00  0.00    -0.172 NA
ATOM      9  N2  UNL     1     -45.997  31.838  -6.092  0.00  0.00    -0.222 N 
ATOM     10  C14 UNL     1     -45.906  31.158  -7.211  0.00  0.00    +0.253 C 
ATOM     11  O2  UNL     1     -46.931  30.279  -7.574  0.00  0.00    -0.271 OA
ATOM     12  C15 UNL     1     -44.739  31.351  -8.165  0.00  0.00    +0.091 C 
ATOM     13  C16 UNL     1     -44.313  29.975  -8.776  0.00  0.00    +0.035 C 
ATOM     14  C17 UNL     1     -42.854  29.900  -9.138  0.00  0.00    -0.030 C 
ATOM     15  C18 UNL     1     -41.938  30.422  -8.316  0.00  0.00    -0.030 C 
ATOM     16  C19 UNL     1     -42.393  31.196  -7.115  0.00  0.00    +0.032 C 
ATOM     17  C20 UNL     1     -43.538  32.138  -7.539  0.00  0.00    +0.056 C 
BRANCH   9  18
ATOM     18  C7  UNL     1     -47.131  31.685  -5.153  0.00  0.00    +0.108 C 
ATOM     19  C8  UNL     1     -48.474  31.951  -5.871  0.00  0.00    +0.024 C 
ATOM     20  C9  UNL     1     -49.627  32.279  -4.914  0.00  0.00    +0.002 C 
ATOM     21  C10 UNL     1     -49.915  31.167  -3.893  0.00  0.00    +0.000 C 
ATOM     22  C11 UNL     1     -48.892  31.150  -2.745  0.00  0.00    +0.000 C 
ATOM     23  C12 UNL     1     -47.632  30.305  -3.013  0.00  0.00    +0.002 C 
ATOM     24  C13 UNL     1     -47.103  30.300  -4.459  0.00  0.00    +0.024 C 
ENDBRANCH   9  18
ENDBRANCH   4   7
BRANCH   1  26
ATOM     25  C1  UNL     1     -40.444  38.407  -4.595  0.00  0.00    +0.253 C 
ATOM     26  O1  UNL     1     -40.284  37.001  -4.442  0.00  0.00    -0.468 OA
ENDBRANCH   1  26
BRANCH   6  27
ATOM     27  O3  UNL     1     -39.336  34.857  -5.848  0.00  0.00    -0.472 OA
BRANCH  27  28
ATOM     28  C23 UNL     1     -38.714  33.898  -6.701  0.00  0.00    +0.206 C 
BRANCH  28  29
ATOM     29  C24 UNL     1     -39.596  33.632  -7.922  0.00  0.00    +0.051 C 
BRANCH  29  30
ATOM     30  C25 UNL     1     -38.767  33.615  -9.215  0.00  0.00    +0.051 C 
BRANCH  30  31
ATOM     31  C26 UNL     1     -38.814  32.248  -9.898  0.00  0.00    +0.206 C 
BRANCH  31  32
ATOM     32  O4  UNL     1     -37.517  31.883 -10.364  0.00  0.00    -0.475 OA
BRANCH  32  33
ATOM     33  C27 UNL     1     -36.330  32.116  -9.652  0.00  0.00    +0.139 A 
ATOM     34  C28 UNL     1     -35.847  31.221  -8.678  0.00  0.00    +0.037 A 
ATOM     35  C29 UNL     1     -34.657  31.493  -7.998  0.00  0.00    +0.006 A 
ATOM     36  C30 UNL     1     -33.919  32.658  -8.278  0.00  0.00    +0.040 A 
ATOM     37  C32 UNL     1     -34.410  33.549  -9.251  0.00  0.00    +0.006 A 
ATOM     38  C33 UNL     1     -35.605  33.279  -9.925  0.00  0.00    +0.037 A 
BRANCH  36  39
ATOM     39  C31 UNL     1     -32.646  32.937  -7.562  0.00  0.00    +0.208 A 
ATOM     40  N3  UNL     1     -31.501  32.231  -7.701  0.00  0.00    -0.106 NA
ATOM     41  N4  UNL     1     -30.620  32.814  -6.906  0.00  0.00    -0.021 NA
ATOM     42  N5  UNL     1     -31.185  33.839  -6.295  0.00  0.00    -0.021 NA
ATOM     43  N6  UNL     1     -32.446  33.944  -6.682  0.00  0.00    -0.106 NA
ENDBRANCH  36  39
ENDBRANCH  32  33
ENDBRANCH  31  32
ENDBRANCH  30  31
ENDBRANCH  29  30
ENDBRANCH  28  29
ENDBRANCH  27  28
ENDBRANCH   6  27
TORSDOF 11
ENDMDL
