MODEL 1
REMARK VINA RESULT:      -9.1      0.000      0.000
REMARK  Name = ./data/4wxx_site_bc02/pdb/l0c1.pdb
REMARK  11 active torsions:
REMARK  status: ('A' for Active; 'I' for Inactive)
REMARK    1  A    between atoms: O1_2  and  C2_3
REMARK    2  A    between atoms: C5_6  and  C6_7
REMARK    3  A    between atoms: N2_9  and  C7_10
REMARK    4  A    between atoms: C19_23  and  O3_24
REMARK    5  A    between atoms: O3_24  and  C20_25
REMARK    6  A    between atoms: C20_25  and  C21_26
REMARK    7  A    between atoms: C21_26  and  C22_27
REMARK    8  A    between atoms: C22_27  and  C23_28
REMARK    9  A    between atoms: C23_28  and  O4_29
REMARK   10  A    between atoms: O4_29  and  C24_30
REMARK   11  A    between atoms: C27_33  and  C28_34
REMARK                            x       y       z     vdW  Elec       q    Type
REMARK                         _______ _______ _______ _____ _____    ______ ____
ROOT
ATOM      1  C2  UNL     1     -52.087  63.009   7.038  0.00  0.00    +0.172 A 
ATOM      2  C3  UNL     1     -51.113  62.732   8.012  0.00  0.00    +0.040 A 
ATOM      3  C4  UNL     1     -50.353  61.562   7.939  0.00  0.00    +0.005 A 
ATOM      4  C5  UNL     1     -50.551  60.638   6.899  0.00  0.00    +0.019 A 
ATOM      5  C18 UNL     1     -51.492  60.944   5.903  0.00  0.00    +0.041 A 
ATOM      6  C19 UNL     1     -52.271  62.115   5.972  0.00  0.00    +0.172 A 
ENDROOT
BRANCH   4   7
ATOM      7  C6  UNL     1     -49.812  59.345   6.907  0.00  0.00    +0.086 C 
ATOM      8  N1  UNL     1     -50.249  58.317   6.250  0.00  0.00    -0.171 NA
ATOM      9  N2  UNL     1     -49.279  57.315   6.235  0.00  0.00    -0.222 N 
ATOM     10  C14 UNL     1     -48.227  57.707   6.878  0.00  0.00    +0.257 C 
ATOM     11  O2  UNL     1     -47.084  56.923   7.015  0.00  0.00    -0.270 OA
ATOM     12  C15 UNL     1     -48.409  59.083   7.448  0.00  0.00    +0.110 C 
ATOM     13  C16 UNL     1     -48.357  59.008   8.984  0.00  0.00    +0.015 C 
ATOM     14  C17 UNL     1     -47.365  60.052   6.860  0.00  0.00    +0.015 C 
BRANCH   9  15
ATOM     15  C7  UNL     1     -49.439  56.006   5.582  0.00  0.00    +0.108 C 
ATOM     16  C8  UNL     1     -48.912  56.036   4.119  0.00  0.00    +0.024 C 
ATOM     17  C9  UNL     1     -48.367  54.672   3.664  0.00  0.00    +0.002 C 
ATOM     18  C10 UNL     1     -49.453  53.646   3.324  0.00  0.00    +0.000 C 
ATOM     19  C11 UNL     1     -50.392  53.339   4.502  0.00  0.00    +0.000 C 
ATOM     20  C12 UNL     1     -51.403  54.471   4.733  0.00  0.00    +0.002 C 
ATOM     21  C13 UNL     1     -50.917  55.548   5.719  0.00  0.00    +0.024 C 
ENDBRANCH   9  15
ENDBRANCH   4   7
BRANCH   1  23
ATOM     22  C1  UNL     1     -53.559  64.621   8.263  0.00  0.00    +0.253 C 
ATOM     23  O1  UNL     1     -52.893  64.160   7.093  0.00  0.00    -0.468 OA
ENDBRANCH   1  23
BRANCH   6  24
ATOM     24  O3  UNL     1     -53.249  62.430   5.005  0.00  0.00    -0.472 OA
BRANCH  24  25
ATOM     25  C20 UNL     1     -53.946  61.482   4.194  0.00  0.00    +0.206 C 
BRANCH  25  26
ATOM     26  C21 UNL     1     -53.820  61.842   2.706  0.00  0.00    +0.051 C 
BRANCH  26  27
ATOM     27  C22 UNL     1     -53.864  63.363   2.510  0.00  0.00    +0.051 C 
BRANCH  27  28
ATOM     28  C23 UNL     1     -52.924  63.809   1.388  0.00  0.00    +0.206 C 
BRANCH  28  29
ATOM     29  O4  UNL     1     -52.346  65.077   1.698  0.00  0.00    -0.475 OA
BRANCH  29  30
ATOM     30  C24 UNL     1     -51.185  65.283   2.462  0.00  0.00    +0.139 A 
ATOM     31  C25 UNL     1     -50.841  64.483   3.568  0.00  0.00    +0.037 A 
ATOM     32  C26 UNL     1     -49.656  64.723   4.273  0.00  0.00    +0.006 A 
ATOM     33  C27 UNL     1     -48.793  65.770   3.896  0.00  0.00    +0.040 A 
ATOM     34  C29 UNL     1     -49.154  66.573   2.799  0.00  0.00    +0.006 A 
ATOM     35  C30 UNL     1     -50.334  66.328   2.090  0.00  0.00    +0.037 A 
BRANCH  33  36
ATOM     36  C28 UNL     1     -47.520  66.016   4.634  0.00  0.00    +0.208 A 
ATOM     37  N3  UNL     1     -47.124  65.362   5.746  0.00  0.00    -0.106 NA
ATOM     38  N4  UNL     1     -45.954  65.884   6.076  0.00  0.00    -0.021 NA
ATOM     39  N5  UNL     1     -45.628  66.826   5.206  0.00  0.00    -0.021 NA
ATOM     40  N6  UNL     1     -46.584  66.933   4.298  0.00  0.00    -0.106 NA
ENDBRANCH  33  36
ENDBRANCH  29  30
ENDBRANCH  28  29
ENDBRANCH  27  28
ENDBRANCH  26  27
ENDBRANCH  25  26
ENDBRANCH  24  25
ENDBRANCH   6  24
TORSDOF 11
ENDMDL
MODEL 2
REMARK VINA RESULT:      -7.8      2.707      8.702
REMARK  Name = ./data/4wxx_site_bc02/pdb/l0c1.pdb
REMARK  11 active torsions:
REMARK  status: ('A' for Active; 'I' for Inactive)
REMARK    1  A    between atoms: O1_2  and  C2_3
REMARK    2  A    between atoms: C5_6  and  C6_7
REMARK    3  A    between atoms: N2_9  and  C7_10
REMARK    4  A    between atoms: C19_23  and  O3_24
REMARK    5  A    between atoms: O3_24  and  C20_25
REMARK    6  A    between atoms: C20_25  and  C21_26
REMARK    7  A    between atoms: C21_26  and  C22_27
REMARK    8  A    between atoms: C22_27  and  C23_28
REMARK    9  A    between atoms: C23_28  and  O4_29
REMARK   10  A    between atoms: O4_29  and  C24_30
REMARK   11  A    between atoms: C27_33  and  C28_34
REMARK                            x       y       z     vdW  Elec       q    Type
REMARK                         _______ _______ _______ _____ _____    ______ ____
ROOT
ATOM      1  C2  UNL     1     -51.130  56.105   5.713  0.00  0.00    +0.172 A 
ATOM      2  C3  UNL     1     -52.321  56.764   5.369  0.00  0.00    +0.040 A 
ATOM      3  C4  UNL     1     -52.378  58.160   5.349  0.00  0.00    +0.005 A 
ATOM      4  C5  UNL     1     -51.250  58.931   5.679  0.00  0.00    +0.019 A 
ATOM      5  C18 UNL     1     -50.050  58.266   5.976  0.00  0.00    +0.041 A 
ATOM      6  C19 UNL     1     -49.985  56.859   6.010  0.00  0.00    +0.172 A 
ENDROOT
BRANCH   4   7
ATOM      7  C6  UNL     1     -51.366  60.413   5.765  0.00  0.00    +0.086 C 
ATOM      8  N1  UNL     1     -50.322  61.175   5.671  0.00  0.00    -0.171 NA
ATOM      9  N2  UNL     1     -50.717  62.509   5.559  0.00  0.00    -0.222 N 
ATOM     10  C14 UNL     1     -52.007  62.593   5.577  0.00  0.00    +0.257 C 
ATOM     11  O2  UNL     1     -52.693  63.800   5.463  0.00  0.00    -0.270 OA
ATOM     12  C15 UNL     1     -52.646  61.244   5.743  0.00  0.00    +0.110 C 
ATOM     13  C16 UNL     1     -53.415  61.208   7.076  0.00  0.00    +0.015 C 
ATOM     14  C17 UNL     1     -53.537  60.917   4.529  0.00  0.00    +0.015 C 
BRANCH   9  15
ATOM     15  C7  UNL     1     -49.792  63.647   5.438  0.00  0.00    +0.108 C 
ATOM     16  C8  UNL     1     -49.472  63.961   3.950  0.00  0.00    +0.024 C 
ATOM     17  C9  UNL     1     -49.180  65.453   3.715  0.00  0.00    +0.002 C 
ATOM     18  C10 UNL     1     -47.790  65.899   4.178  0.00  0.00    +0.000 C 
ATOM     19  C11 UNL     1     -47.543  65.665   5.677  0.00  0.00    +0.000 C 
ATOM     20  C12 UNL     1     -47.273  64.185   5.985  0.00  0.00    +0.002 C 
ATOM     21  C13 UNL     1     -48.539  63.378   6.318  0.00  0.00    +0.024 C 
ENDBRANCH   9  15
ENDBRANCH   4   7
BRANCH   1  23
ATOM     22  C1  UNL     1     -51.203  53.837   4.657  0.00  0.00    +0.253 C 
ATOM     23  O1  UNL     1     -51.042  54.703   5.774  0.00  0.00    -0.468 OA
ENDBRANCH   1  23
BRANCH   6  24
ATOM     24  O3  UNL     1     -48.802  56.166   6.340  0.00  0.00    -0.472 OA
BRANCH  24  25
ATOM     25  C20 UNL     1     -47.775  55.794   5.417  0.00  0.00    +0.206 C 
BRANCH  25  26
ATOM     26  C21 UNL     1     -46.726  54.906   6.101  0.00  0.00    +0.051 C 
BRANCH  26  27
ATOM     27  C22 UNL     1     -45.426  55.686   6.337  0.00  0.00    +0.051 C 
BRANCH  27  28
ATOM     28  C23 UNL     1     -44.859  55.416   7.734  0.00  0.00    +0.206 C 
BRANCH  28  29
ATOM     29  O4  UNL     1     -44.860  56.613   8.511  0.00  0.00    -0.475 OA
BRANCH  29  30
ATOM     30  C24 UNL     1     -45.971  57.444   8.732  0.00  0.00    +0.139 A 
ATOM     31  C25 UNL     1     -46.827  57.304   9.841  0.00  0.00    +0.037 A 
ATOM     32  C26 UNL     1     -47.903  58.181  10.019  0.00  0.00    +0.006 A 
ATOM     33  C27 UNL     1     -48.154  59.211   9.092  0.00  0.00    +0.040 A 
ATOM     34  C29 UNL     1     -47.302  59.333   7.979  0.00  0.00    +0.006 A 
ATOM     35  C30 UNL     1     -46.223  58.461   7.806  0.00  0.00    +0.037 A 
BRANCH  33  36
ATOM     36  C28 UNL     1     -49.289  60.159   9.290  0.00  0.00    +0.208 A 
ATOM     37  N3  UNL     1     -49.473  61.309   8.607  0.00  0.00    -0.106 NA
ATOM     38  N4  UNL     1     -50.583  61.843   9.090  0.00  0.00    -0.021 NA
ATOM     39  N5  UNL     1     -51.076  61.060  10.036  0.00  0.00    -0.021 NA
ATOM     40  N6  UNL     1     -50.292  60.005  10.185  0.00  0.00    -0.106 NA
ENDBRANCH  33  36
ENDBRANCH  29  30
ENDBRANCH  28  29
ENDBRANCH  27  28
ENDBRANCH  26  27
ENDBRANCH  25  26
ENDBRANCH  24  25
ENDBRANCH   6  24
TORSDOF 11
ENDMDL
MODEL 3
REMARK VINA RESULT:      -7.1      3.175      8.760
REMARK  Name = ./data/4wxx_site_bc02/pdb/l0c1.pdb
REMARK  11 active torsions:
REMARK  status: ('A' for Active; 'I' for Inactive)
REMARK    1  A    between atoms: O1_2  and  C2_3
REMARK    2  A    between atoms: C5_6  and  C6_7
REMARK    3  A    between atoms: N2_9  and  C7_10
REMARK    4  A    between atoms: C19_23  and  O3_24
REMARK    5  A    between atoms: O3_24  and  C20_25
REMARK    6  A    between atoms: C20_25  and  C21_26
REMARK    7  A    between atoms: C21_26  and  C22_27
REMARK    8  A    between atoms: C22_27  and  C23_28
REMARK    9  A    between atoms: C23_28  and  O4_29
REMARK   10  A    between atoms: O4_29  and  C24_30
REMARK   11  A    between atoms: C27_33  and  C28_34
REMARK                            x       y       z     vdW  Elec       q    Type
REMARK                         _______ _______ _______ _____ _____    ______ ____
ROOT
ATOM      1  C2  UNL     1     -52.991  56.866   5.219  0.00  0.00    +0.172 A 
ATOM      2  C3  UNL     1     -53.736  58.044   5.049  0.00  0.00    +0.040 A 
ATOM      3  C4  UNL     1     -53.193  59.282   5.402  0.00  0.00    +0.005 A 
ATOM      4  C5  UNL     1     -51.898  59.373   5.940  0.00  0.00    +0.019 A 
ATOM      5  C18 UNL     1     -51.141  58.197   6.063  0.00  0.00    +0.041 A 
ATOM      6  C19 UNL     1     -51.683  56.942   5.720  0.00  0.00    +0.172 A 
ENDROOT
BRANCH   4   7
ATOM      7  C6  UNL     1     -51.385  60.687   6.417  0.00  0.00    +0.086 C 
ATOM      8  N1  UNL     1     -50.713  61.471   5.634  0.00  0.00    -0.171 NA
ATOM      9  N2  UNL     1     -50.543  62.716   6.240  0.00  0.00    -0.222 N 
ATOM     10  C14 UNL     1     -51.109  62.724   7.403  0.00  0.00    +0.257 C 
ATOM     11  O2  UNL     1     -51.121  63.840   8.236  0.00  0.00    -0.270 OA
ATOM     12  C15 UNL     1     -51.728  61.395   7.725  0.00  0.00    +0.110 C 
ATOM     13  C16 UNL     1     -51.015  60.787   8.947  0.00  0.00    +0.015 C 
ATOM     14  C17 UNL     1     -53.247  61.543   7.931  0.00  0.00    +0.015 C 
BRANCH   9  15
ATOM     15  C7  UNL     1     -49.824  63.848   5.636  0.00  0.00    +0.108 C 
ATOM     16  C8  UNL     1     -49.820  63.754   4.084  0.00  0.00    +0.024 C 
ATOM     17  C9  UNL     1     -49.787  65.137   3.412  0.00  0.00    +0.002 C 
ATOM     18  C10 UNL     1     -48.413  65.814   3.442  0.00  0.00    +0.000 C 
ATOM     19  C11 UNL     1     -47.874  66.038   4.865  0.00  0.00    +0.000 C 
ATOM     20  C12 UNL     1     -47.349  64.735   5.484  0.00  0.00    +0.002 C 
ATOM     21  C13 UNL     1     -48.410  63.949   6.273  0.00  0.00    +0.024 C 
ENDBRANCH   9  15
ENDBRANCH   4   7
BRANCH   1  23
ATOM     22  C1  UNL     1     -53.926  55.199   3.602  0.00  0.00    +0.253 C 
ATOM     23  O1  UNL     1     -53.514  55.599   4.904  0.00  0.00    -0.468 OA
ENDBRANCH   1  23
BRANCH   6  24
ATOM     24  O3  UNL     1     -50.958  55.742   5.867  0.00  0.00    -0.472 OA
BRANCH  24  25
ATOM     25  C20 UNL     1     -50.730  54.780   4.834  0.00  0.00    +0.206 C 
BRANCH  25  26
ATOM     26  C21 UNL     1     -50.351  55.474   3.518  0.00  0.00    +0.051 C 
BRANCH  26  27
ATOM     27  C22 UNL     1     -49.187  54.745   2.836  0.00  0.00    +0.051 C 
BRANCH  27  28
ATOM     28  C23 UNL     1     -47.839  55.173   3.422  0.00  0.00    +0.206 C 
BRANCH  28  29
ATOM     29  O4  UNL     1     -48.023  56.210   4.386  0.00  0.00    -0.475 OA
BRANCH  29  30
ATOM     30  C24 UNL     1     -47.373  56.298   5.629  0.00  0.00    +0.139 A 
ATOM     31  C25 UNL     1     -47.743  57.218   6.627  0.00  0.00    +0.037 A 
ATOM     32  C26 UNL     1     -47.071  57.239   7.854  0.00  0.00    +0.006 A 
ATOM     33  C27 UNL     1     -46.011  56.347   8.111  0.00  0.00    +0.040 A 
ATOM     34  C29 UNL     1     -45.639  55.441   7.100  0.00  0.00    +0.006 A 
ATOM     35  C30 UNL     1     -46.315  55.417   5.877  0.00  0.00    +0.037 A 
BRANCH  33  36
ATOM     36  C28 UNL     1     -45.306  56.353   9.425  0.00  0.00    +0.208 A 
ATOM     37  N3  UNL     1     -44.057  55.892   9.642  0.00  0.00    -0.106 NA
ATOM     38  N4  UNL     1     -43.821  56.078  10.931  0.00  0.00    -0.021 NA
ATOM     39  N5  UNL     1     -44.878  56.635  11.499  0.00  0.00    -0.021 NA
ATOM     40  N6  UNL     1     -45.820  56.817  10.587  0.00  0.00    -0.106 NA
ENDBRANCH  33  36
ENDBRANCH  29  30
ENDBRANCH  28  29
ENDBRANCH  27  28
ENDBRANCH  26  27
ENDBRANCH  25  26
ENDBRANCH  24  25
ENDBRANCH   6  24
TORSDOF 11
ENDMDL
