MODEL 1
REMARK VINA RESULT:      -9.4      0.000      0.000
REMARK  Name = ./data/4wxx_site_bc02/pdb/l0c1.pdb
REMARK  11 active torsions:
REMARK  status: ('A' for Active; 'I' for Inactive)
REMARK    1  A    between atoms: O1_2  and  C2_3
REMARK    2  A    between atoms: C5_6  and  C6_7
REMARK    3  A    between atoms: N2_9  and  C7_10
REMARK    4  A    between atoms: C19_23  and  O3_24
REMARK    5  A    between atoms: O3_24  and  C20_25
REMARK    6  A    between atoms: C20_25  and  C21_26
REMARK    7  A    between atoms: C21_26  and  C22_27
REMARK    8  A    between atoms: C22_27  and  C23_28
REMARK    9  A    between atoms: C23_28  and  O4_29
REMARK   10  A    between atoms: O4_29  and  C24_30
REMARK   11  A    between atoms: C27_33  and  C28_34
REMARK                            x       y       z     vdW  Elec       q    Type
REMARK                         _______ _______ _______ _____ _____    ______ ____
ROOT
ATOM      1  C2  UNL     1     -52.935  62.258   7.397  0.00  0.00    +0.172 A 
ATOM      2  C3  UNL     1     -51.788  62.242   8.207  0.00  0.00    +0.040 A 
ATOM      3  C4  UNL     1     -50.812  61.258   8.032  0.00  0.00    +0.005 A 
ATOM      4  C5  UNL     1     -50.960  60.264   7.050  0.00  0.00    +0.019 A 
ATOM      5  C18 UNL     1     -52.085  60.314   6.212  0.00  0.00    +0.041 A 
ATOM      6  C19 UNL     1     -53.081  61.295   6.388  0.00  0.00    +0.172 A 
ENDROOT
BRANCH   4   7
ATOM      7  C6  UNL     1     -49.965  59.159   6.959  0.00  0.00    +0.086 C 
ATOM      8  N1  UNL     1     -50.233  58.064   6.319  0.00  0.00    -0.171 NA
ATOM      9  N2  UNL     1     -49.078  57.294   6.192  0.00  0.00    -0.222 N 
ATOM     10  C14 UNL     1     -48.078  57.899   6.746  0.00  0.00    +0.257 C 
ATOM     11  O2  UNL     1     -46.786  57.378   6.760  0.00  0.00    -0.270 OA
ATOM     12  C15 UNL     1     -48.495  59.202   7.364  0.00  0.00    +0.110 C 
ATOM     13  C16 UNL     1     -48.283  59.132   8.887  0.00  0.00    +0.015 C 
ATOM     14  C17 UNL     1     -47.740  60.375   6.708  0.00  0.00    +0.015 C 
BRANCH   9  15
ATOM     15  C7  UNL     1     -49.015  55.985   5.523  0.00  0.00    +0.108 C 
ATOM     16  C8  UNL     1     -48.909  56.141   3.980  0.00  0.00    +0.024 C 
ATOM     17  C9  UNL     1     -48.129  54.988   3.326  0.00  0.00    +0.002 C 
ATOM     18  C10 UNL     1     -48.924  53.684   3.206  0.00  0.00    +0.000 C 
ATOM     19  C11 UNL     1     -49.404  53.136   4.560  0.00  0.00    +0.000 C 
ATOM     20  C12 UNL     1     -50.604  53.928   5.101  0.00  0.00    +0.002 C 
ATOM     21  C13 UNL     1     -50.214  55.116   5.996  0.00  0.00    +0.024 C 
ENDBRANCH   9  15
ENDBRANCH   4   7
BRANCH   1  23
ATOM     22  C1  UNL     1     -54.345  63.764   8.816  0.00  0.00    +0.253 C 
ATOM     23  O1  UNL     1     -53.954  63.213   7.563  0.00  0.00    -0.468 OA
ENDBRANCH   1  23
BRANCH   6  24
ATOM     24  O3  UNL     1     -54.239  61.347   5.584  0.00  0.00    -0.472 OA
BRANCH  24  25
ATOM     25  C20 UNL     1     -54.314  60.951   4.212  0.00  0.00    +0.206 C 
BRANCH  25  26
ATOM     26  C21 UNL     1     -54.711  62.139   3.324  0.00  0.00    +0.051 C 
BRANCH  26  27
ATOM     27  C22 UNL     1     -53.922  62.120   2.008  0.00  0.00    +0.051 C 
BRANCH  27  28
ATOM     28  C23 UNL     1     -52.913  63.269   1.945  0.00  0.00    +0.206 C 
BRANCH  28  29
ATOM     29  O4  UNL     1     -52.526  63.663   3.261  0.00  0.00    -0.475 OA
BRANCH  29  30
ATOM     30  C24 UNL     1     -51.282  64.210   3.620  0.00  0.00    +0.139 A 
ATOM     31  C25 UNL     1     -50.648  65.226   2.881  0.00  0.00    +0.037 A 
ATOM     32  C26 UNL     1     -49.420  65.748   3.305  0.00  0.00    +0.006 A 
ATOM     33  C27 UNL     1     -48.795  65.262   4.470  0.00  0.00    +0.040 A 
ATOM     34  C29 UNL     1     -49.429  64.235   5.192  0.00  0.00    +0.006 A 
ATOM     35  C30 UNL     1     -50.659  63.720   4.772  0.00  0.00    +0.037 A 
BRANCH  33  36
ATOM     36  C28 UNL     1     -47.495  65.829   4.935  0.00  0.00    +0.208 A 
ATOM     37  N3  UNL     1     -46.887  66.915   4.413  0.00  0.00    -0.106 NA
ATOM     38  N4  UNL     1     -45.770  67.071   5.104  0.00  0.00    -0.021 NA
ATOM     39  N5  UNL     1     -45.681  66.123   6.022  0.00  0.00    -0.021 NA
ATOM     40  N6  UNL     1     -46.739  65.333   5.940  0.00  0.00    -0.106 NA
ENDBRANCH  33  36
ENDBRANCH  29  30
ENDBRANCH  28  29
ENDBRANCH  27  28
ENDBRANCH  26  27
ENDBRANCH  25  26
ENDBRANCH  24  25
ENDBRANCH   6  24
TORSDOF 11
ENDMDL
MODEL 2
REMARK VINA RESULT:      -7.6      3.353      8.387
REMARK  Name = ./data/4wxx_site_bc02/pdb/l0c1.pdb
REMARK  11 active torsions:
REMARK  status: ('A' for Active; 'I' for Inactive)
REMARK    1  A    between atoms: O1_2  and  C2_3
REMARK    2  A    between atoms: C5_6  and  C6_7
REMARK    3  A    between atoms: N2_9  and  C7_10
REMARK    4  A    between atoms: C19_23  and  O3_24
REMARK    5  A    between atoms: O3_24  and  C20_25
REMARK    6  A    between atoms: C20_25  and  C21_26
REMARK    7  A    between atoms: C21_26  and  C22_27
REMARK    8  A    between atoms: C22_27  and  C23_28
REMARK    9  A    between atoms: C23_28  and  O4_29
REMARK   10  A    between atoms: O4_29  and  C24_30
REMARK   11  A    between atoms: C27_33  and  C28_34
REMARK                            x       y       z     vdW  Elec       q    Type
REMARK                         _______ _______ _______ _____ _____    ______ ____
ROOT
ATOM      1  C2  UNL     1     -53.794  55.792   5.741  0.00  0.00    +0.172 A 
ATOM      2  C3  UNL     1     -54.740  56.671   6.294  0.00  0.00    +0.040 A 
ATOM      3  C4  UNL     1     -54.498  58.047   6.321  0.00  0.00    +0.005 A 
ATOM      4  C5  UNL     1     -53.303  58.578   5.804  0.00  0.00    +0.019 A 
ATOM      5  C18 UNL     1     -52.383  57.699   5.209  0.00  0.00    +0.041 A 
ATOM      6  C19 UNL     1     -52.613  56.309   5.188  0.00  0.00    +0.172 A 
ENDROOT
BRANCH   4   7
ATOM      7  C6  UNL     1     -53.016  60.032   5.949  0.00  0.00    +0.086 C 
ATOM      8  N1  UNL     1     -51.798  60.474   5.996  0.00  0.00    -0.171 NA
ATOM      9  N2  UNL     1     -51.796  61.867   5.909  0.00  0.00    -0.222 N 
ATOM     10  C14 UNL     1     -53.008  62.306   5.803  0.00  0.00    +0.257 C 
ATOM     11  O2  UNL     1     -53.319  63.659   5.680  0.00  0.00    -0.270 OA
ATOM     12  C15 UNL     1     -54.007  61.186   5.840  0.00  0.00    +0.110 C 
ATOM     13  C16 UNL     1     -54.896  61.341   7.088  0.00  0.00    +0.015 C 
ATOM     14  C17 UNL     1     -54.816  61.143   4.530  0.00  0.00    +0.015 C 
BRANCH   9  15
ATOM     15  C7  UNL     1     -50.587  62.704   5.935  0.00  0.00    +0.108 C 
ATOM     16  C8  UNL     1     -50.318  63.354   4.549  0.00  0.00    +0.024 C 
ATOM     17  C9  UNL     1     -49.613  64.716   4.666  0.00  0.00    +0.002 C 
ATOM     18  C10 UNL     1     -48.118  64.621   4.987  0.00  0.00    +0.000 C 
ATOM     19  C11 UNL     1     -47.824  63.894   6.309  0.00  0.00    +0.000 C 
ATOM     20  C12 UNL     1     -47.985  62.373   6.169  0.00  0.00    +0.002 C 
ATOM     21  C13 UNL     1     -49.401  61.865   6.488  0.00  0.00    +0.024 C 
ENDBRANCH   9  15
ENDBRANCH   4   7
BRANCH   1  23
ATOM     22  C1  UNL     1     -54.542  53.650   6.798  0.00  0.00    +0.253 C 
ATOM     23  O1  UNL     1     -53.988  54.400   5.723  0.00  0.00    -0.468 OA
ENDBRANCH   1  23
BRANCH   6  24
ATOM     24  O3  UNL     1     -51.689  55.401   4.629  0.00  0.00    -0.472 OA
BRANCH  24  25
ATOM     25  C20 UNL     1     -51.803  54.790   3.342  0.00  0.00    +0.206 C 
BRANCH  25  26
ATOM     26  C21 UNL     1     -50.713  55.310   2.395  0.00  0.00    +0.051 C 
BRANCH  26  27
ATOM     27  C22 UNL     1     -49.368  54.635   2.692  0.00  0.00    +0.051 C 
BRANCH  27  28
ATOM     28  C23 UNL     1     -48.322  55.653   3.153  0.00  0.00    +0.206 C 
BRANCH  28  29
ATOM     29  O4  UNL     1     -48.670  56.179   4.433  0.00  0.00    -0.475 OA
BRANCH  29  30
ATOM     30  C24 UNL     1     -47.827  56.224   5.556  0.00  0.00    +0.139 A 
ATOM     31  C25 UNL     1     -47.934  57.206   6.559  0.00  0.00    +0.037 A 
ATOM     32  C26 UNL     1     -47.080  57.182   7.667  0.00  0.00    +0.006 A 
ATOM     33  C27 UNL     1     -46.096  56.182   7.796  0.00  0.00    +0.040 A 
ATOM     34  C29 UNL     1     -45.986  55.215   6.781  0.00  0.00    +0.006 A 
ATOM     35  C30 UNL     1     -46.845  55.236   5.677  0.00  0.00    +0.037 A 
BRANCH  33  36
ATOM     36  C28 UNL     1     -45.197  56.142   8.986  0.00  0.00    +0.208 A 
ATOM     37  N3  UNL     1     -45.486  56.658  10.200  0.00  0.00    -0.106 NA
ATOM     38  N4  UNL     1     -44.428  56.415  10.957  0.00  0.00    -0.021 NA
ATOM     39  N5  UNL     1     -43.515  55.771  10.249  0.00  0.00    -0.021 NA
ATOM     40  N6  UNL     1     -43.963  55.589   9.017  0.00  0.00    -0.106 NA
ENDBRANCH  33  36
ENDBRANCH  29  30
ENDBRANCH  28  29
ENDBRANCH  27  28
ENDBRANCH  26  27
ENDBRANCH  25  26
ENDBRANCH  24  25
ENDBRANCH   6  24
TORSDOF 11
ENDMDL
MODEL 3
REMARK VINA RESULT:      -7.2      2.527      3.482
REMARK  Name = ./data/4wxx_site_bc02/pdb/l0c1.pdb
REMARK  11 active torsions:
REMARK  status: ('A' for Active; 'I' for Inactive)
REMARK    1  A    between atoms: O1_2  and  C2_3
REMARK    2  A    between atoms: C5_6  and  C6_7
REMARK    3  A    between atoms: N2_9  and  C7_10
REMARK    4  A    between atoms: C19_23  and  O3_24
REMARK    5  A    between atoms: O3_24  and  C20_25
REMARK    6  A    between atoms: C20_25  and  C21_26
REMARK    7  A    between atoms: C21_26  and  C22_27
REMARK    8  A    between atoms: C22_27  and  C23_28
REMARK    9  A    between atoms: C23_28  and  O4_29
REMARK   10  A    between atoms: O4_29  and  C24_30
REMARK   11  A    between atoms: C27_33  and  C28_34
REMARK                            x       y       z     vdW  Elec       q    Type
REMARK                         _______ _______ _______ _____ _____    ______ ____
ROOT
ATOM      1  C2  UNL     1     -51.508  62.913   6.929  0.00  0.00    +0.172 A 
ATOM      2  C3  UNL     1     -50.326  62.765   6.186  0.00  0.00    +0.040 A 
ATOM      3  C4  UNL     1     -49.675  61.530   6.130  0.00  0.00    +0.005 A 
ATOM      4  C5  UNL     1     -50.184  60.416   6.819  0.00  0.00    +0.019 A 
ATOM      5  C18 UNL     1     -51.392  60.558   7.520  0.00  0.00    +0.041 A 
ATOM      6  C19 UNL     1     -52.050  61.802   7.593  0.00  0.00    +0.172 A 
ENDROOT
BRANCH   4   7
ATOM      7  C6  UNL     1     -49.412  59.142   6.840  0.00  0.00    +0.086 C 
ATOM      8  N1  UNL     1     -49.707  58.165   6.042  0.00  0.00    -0.171 NA
ATOM      9  N2  UNL     1     -48.713  57.188   6.101  0.00  0.00    -0.222 N 
ATOM     10  C14 UNL     1     -47.787  57.546   6.930  0.00  0.00    +0.257 C 
ATOM     11  O2  UNL     1     -46.652  56.779   7.182  0.00  0.00    -0.270 OA
ATOM     12  C15 UNL     1     -48.102  58.866   7.572  0.00  0.00    +0.110 C 
ATOM     13  C16 UNL     1     -48.285  58.663   9.087  0.00  0.00    +0.015 C 
ATOM     14  C17 UNL     1     -47.013  59.903   7.235  0.00  0.00    +0.015 C 
BRANCH   9  15
ATOM     15  C7  UNL     1     -48.724  55.936   5.328  0.00  0.00    +0.108 C 
ATOM     16  C8  UNL     1     -48.799  56.214   3.800  0.00  0.00    +0.024 C 
ATOM     17  C9  UNL     1     -48.097  55.126   2.970  0.00  0.00    +0.002 C 
ATOM     18  C10 UNL     1     -48.896  53.826   2.841  0.00  0.00    +0.000 C 
ATOM     19  C11 UNL     1     -49.213  53.167   4.194  0.00  0.00    +0.000 C 
ATOM     20  C12 UNL     1     -50.345  53.899   4.930  0.00  0.00    +0.002 C 
ATOM     21  C13 UNL     1     -49.857  55.018   5.866  0.00  0.00    +0.024 C 
ENDBRANCH   9  15
ENDBRANCH   4   7
BRANCH   1  23
ATOM     22  C1  UNL     1     -51.527  65.400   7.213  0.00  0.00    +0.253 C 
ATOM     23  O1  UNL     1     -52.175  64.146   7.035  0.00  0.00    -0.468 OA
ENDBRANCH   1  23
BRANCH   6  24
ATOM     24  O3  UNL     1     -53.246  61.981   8.320  0.00  0.00    -0.472 OA
BRANCH  24  25
ATOM     25  C20 UNL     1     -54.565  61.787   7.805  0.00  0.00    +0.206 C 
BRANCH  25  26
ATOM     26  C21 UNL     1     -54.790  60.315   7.429  0.00  0.00    +0.051 C 
BRANCH  26  27
ATOM     27  C22 UNL     1     -54.902  60.155   5.907  0.00  0.00    +0.051 C 
BRANCH  27  28
ATOM     28  C23 UNL     1     -54.765  61.502   5.192  0.00  0.00    +0.206 C 
BRANCH  28  29
ATOM     29  O4  UNL     1     -54.201  61.320   3.894  0.00  0.00    -0.475 OA
BRANCH  29  30
ATOM     30  C24 UNL     1     -53.624  62.328   3.103  0.00  0.00    +0.139 A 
ATOM     31  C25 UNL     1     -53.631  62.300   1.696  0.00  0.00    +0.037 A 
ATOM     32  C26 UNL     1     -53.061  63.349   0.965  0.00  0.00    +0.006 A 
ATOM     33  C27 UNL     1     -52.466  64.444   1.621  0.00  0.00    +0.040 A 
ATOM     34  C29 UNL     1     -52.450  64.455   3.027  0.00  0.00    +0.006 A 
ATOM     35  C30 UNL     1     -53.026  63.410   3.757  0.00  0.00    +0.037 A 
BRANCH  33  36
ATOM     36  C28 UNL     1     -51.875  65.573   0.844  0.00  0.00    +0.208 A 
ATOM     37  N3  UNL     1     -51.189  66.608   1.372  0.00  0.00    -0.106 NA
ATOM     38  N4  UNL     1     -50.850  67.377   0.350  0.00  0.00    -0.021 NA
ATOM     39  N5  UNL     1     -51.303  66.844  -0.774  0.00  0.00    -0.021 NA
ATOM     40  N6  UNL     1     -51.947  65.722  -0.498  0.00  0.00    -0.106 NA
ENDBRANCH  33  36
ENDBRANCH  29  30
ENDBRANCH  28  29
ENDBRANCH  27  28
ENDBRANCH  26  27
ENDBRANCH  25  26
ENDBRANCH  24  25
ENDBRANCH   6  24
TORSDOF 11
ENDMDL
MODEL 4
REMARK VINA RESULT:      -6.9      2.813      7.632
REMARK  Name = ./data/4wxx_site_bc02/pdb/l0c1.pdb
REMARK  11 active torsions:
REMARK  status: ('A' for Active; 'I' for Inactive)
REMARK    1  A    between atoms: O1_2  and  C2_3
REMARK    2  A    between atoms: C5_6  and  C6_7
REMARK    3  A    between atoms: N2_9  and  C7_10
REMARK    4  A    between atoms: C19_23  and  O3_24
REMARK    5  A    between atoms: O3_24  and  C20_25
REMARK    6  A    between atoms: C20_25  and  C21_26
REMARK    7  A    between atoms: C21_26  and  C22_27
REMARK    8  A    between atoms: C22_27  and  C23_28
REMARK    9  A    between atoms: C23_28  and  O4_29
REMARK   10  A    between atoms: O4_29  and  C24_30
REMARK   11  A    between atoms: C27_33  and  C28_34
REMARK                            x       y       z     vdW  Elec       q    Type
REMARK                         _______ _______ _______ _____ _____    ______ ____
ROOT
ATOM      1  C2  UNL     1     -54.377  58.094   6.534  0.00  0.00    +0.172 A 
ATOM      2  C3  UNL     1     -54.902  59.292   7.044  0.00  0.00    +0.040 A 
ATOM      3  C4  UNL     1     -54.422  60.525   6.594  0.00  0.00    +0.005 A 
ATOM      4  C5  UNL     1     -53.402  60.591   5.629  0.00  0.00    +0.019 A 
ATOM      5  C18 UNL     1     -52.915  59.391   5.087  0.00  0.00    +0.041 A 
ATOM      6  C19 UNL     1     -53.384  58.143   5.543  0.00  0.00    +0.172 A 
ENDROOT
BRANCH   4   7
ATOM      7  C6  UNL     1     -52.826  61.911   5.251  0.00  0.00    +0.086 C 
ATOM      8  N1  UNL     1     -51.662  62.284   5.680  0.00  0.00    -0.171 NA
ATOM      9  N2  UNL     1     -51.259  63.442   5.015  0.00  0.00    -0.222 N 
ATOM     10  C14 UNL     1     -52.163  63.801   4.162  0.00  0.00    +0.257 C 
ATOM     11  O2  UNL     1     -52.030  64.914   3.335  0.00  0.00    -0.270 OA
ATOM     12  C15 UNL     1     -53.348  62.880   4.193  0.00  0.00    +0.110 C 
ATOM     13  C16 UNL     1     -54.589  63.666   4.652  0.00  0.00    +0.015 C 
ATOM     14  C17 UNL     1     -53.541  62.203   2.823  0.00  0.00    +0.015 C 
BRANCH   9  15
ATOM     15  C7  UNL     1     -49.989  64.145   5.255  0.00  0.00    +0.108 C 
ATOM     16  C8  UNL     1     -49.283  64.512   3.919  0.00  0.00    +0.024 C 
ATOM     17  C9  UNL     1     -48.444  65.795   4.032  0.00  0.00    +0.002 C 
ATOM     18  C10 UNL     1     -47.111  65.609   4.763  0.00  0.00    +0.000 C 
ATOM     19  C11 UNL     1     -47.272  65.098   6.205  0.00  0.00    +0.000 C 
ATOM     20  C12 UNL     1     -47.609  63.600   6.242  0.00  0.00    +0.002 C 
ATOM     21  C13 UNL     1     -49.118  63.301   6.227  0.00  0.00    +0.024 C 
ENDBRANCH   9  15
ENDBRANCH   4   7
BRANCH   1  23
ATOM     22  C1  UNL     1     -54.710  55.632   6.230  0.00  0.00    +0.253 C 
ATOM     23  O1  UNL     1     -54.812  56.835   6.983  0.00  0.00    -0.468 OA
ENDBRANCH   1  23
BRANCH   6  24
ATOM     24  O3  UNL     1     -52.887  56.921   5.042  0.00  0.00    -0.472 OA
BRANCH  24  25
ATOM     25  C20 UNL     1     -52.345  56.722   3.735  0.00  0.00    +0.206 C 
BRANCH  25  26
ATOM     26  C21 UNL     1     -52.143  55.226   3.452  0.00  0.00    +0.051 C 
BRANCH  26  27
ATOM     27  C22 UNL     1     -50.742  54.776   3.885  0.00  0.00    +0.051 C 
BRANCH  27  28
ATOM     28  C23 UNL     1     -49.656  55.420   3.019  0.00  0.00    +0.206 C 
BRANCH  28  29
ATOM     29  O4  UNL     1     -48.596  55.914   3.837  0.00  0.00    -0.475 OA
BRANCH  29  30
ATOM     30  C24 UNL     1     -48.748  56.740   4.964  0.00  0.00    +0.139 A 
ATOM     31  C25 UNL     1     -48.074  56.514   6.179  0.00  0.00    +0.037 A 
ATOM     32  C26 UNL     1     -48.249  57.388   7.258  0.00  0.00    +0.006 A 
ATOM     33  C27 UNL     1     -49.105  58.502   7.151  0.00  0.00    +0.040 A 
ATOM     34  C29 UNL     1     -49.787  58.709   5.938  0.00  0.00    +0.006 A 
ATOM     35  C30 UNL     1     -49.605  57.839   4.858  0.00  0.00    +0.037 A 
BRANCH  33  36
ATOM     36  C28 UNL     1     -49.279  59.446   8.293  0.00  0.00    +0.208 A 
ATOM     37  N3  UNL     1     -48.683  59.330   9.498  0.00  0.00    -0.106 NA
ATOM     38  N4  UNL     1     -49.106  60.361  10.211  0.00  0.00    -0.021 NA
ATOM     39  N5  UNL     1     -49.932  61.095   9.483  0.00  0.00    -0.021 NA
ATOM     40  N6  UNL     1     -50.061  60.549   8.285  0.00  0.00    -0.106 NA
ENDBRANCH  33  36
ENDBRANCH  29  30
ENDBRANCH  28  29
ENDBRANCH  27  28
ENDBRANCH  26  27
ENDBRANCH  25  26
ENDBRANCH  24  25
ENDBRANCH   6  24
TORSDOF 11
ENDMDL
MODEL 5
REMARK VINA RESULT:      -6.8      3.377      5.265
REMARK  Name = ./data/4wxx_site_bc02/pdb/l0c1.pdb
REMARK  11 active torsions:
REMARK  status: ('A' for Active; 'I' for Inactive)
REMARK    1  A    between atoms: O1_2  and  C2_3
REMARK    2  A    between atoms: C5_6  and  C6_7
REMARK    3  A    between atoms: N2_9  and  C7_10
REMARK    4  A    between atoms: C19_23  and  O3_24
REMARK    5  A    between atoms: O3_24  and  C20_25
REMARK    6  A    between atoms: C20_25  and  C21_26
REMARK    7  A    between atoms: C21_26  and  C22_27
REMARK    8  A    between atoms: C22_27  and  C23_28
REMARK    9  A    between atoms: C23_28  and  O4_29
REMARK   10  A    between atoms: O4_29  and  C24_30
REMARK   11  A    between atoms: C27_33  and  C28_34
REMARK                            x       y       z     vdW  Elec       q    Type
REMARK                         _______ _______ _______ _____ _____    ______ ____
ROOT
ATOM      1  C2  UNL     1     -49.840  63.393   6.979  0.00  0.00    +0.172 A 
ATOM      2  C3  UNL     1     -48.882  63.029   6.019  0.00  0.00    +0.040 A 
ATOM      3  C4  UNL     1     -48.494  61.694   5.877  0.00  0.00    +0.005 A 
ATOM      4  C5  UNL     1     -49.048  60.692   6.693  0.00  0.00    +0.019 A 
ATOM      5  C18 UNL     1     -50.040  61.056   7.617  0.00  0.00    +0.041 A 
ATOM      6  C19 UNL     1     -50.430  62.401   7.777  0.00  0.00    +0.172 A 
ENDROOT
BRANCH   4   7
ATOM      7  C6  UNL     1     -48.535  59.297   6.604  0.00  0.00    +0.086 C 
ATOM      8  N1  UNL     1     -47.467  58.932   7.241  0.00  0.00    -0.171 NA
ATOM      9  N2  UNL     1     -47.326  57.546   7.175  0.00  0.00    -0.222 N 
ATOM     10  C14 UNL     1     -48.303  57.032   6.501  0.00  0.00    +0.257 C 
ATOM     11  O2  UNL     1     -48.441  55.663   6.284  0.00  0.00    -0.270 OA
ATOM     12  C15 UNL     1     -49.239  58.090   5.992  0.00  0.00    +0.110 C 
ATOM     13  C16 UNL     1     -49.215  58.090   4.453  0.00  0.00    +0.015 C 
ATOM     14  C17 UNL     1     -50.653  57.881   6.568  0.00  0.00    +0.015 C 
BRANCH   9  15
ATOM     15  C7  UNL     1     -46.223  56.788   7.786  0.00  0.00    +0.108 C 
ATOM     16  C8  UNL     1     -45.854  57.353   9.186  0.00  0.00    +0.024 C 
ATOM     17  C9  UNL     1     -45.315  56.269  10.134  0.00  0.00    +0.002 C 
ATOM     18  C10 UNL     1     -43.870  55.851   9.848  0.00  0.00    +0.000 C 
ATOM     19  C11 UNL     1     -43.666  55.292   8.430  0.00  0.00    +0.000 C 
ATOM     20  C12 UNL     1     -43.649  56.410   7.377  0.00  0.00    +0.002 C 
ATOM     21  C13 UNL     1     -45.034  56.730   6.787  0.00  0.00    +0.024 C 
ENDBRANCH   9  15
ENDBRANCH   4   7
BRANCH   1  23
ATOM     22  C1  UNL     1     -51.461  65.282   6.710  0.00  0.00    +0.253 C 
ATOM     23  O1  UNL     1     -50.234  64.729   7.173  0.00  0.00    -0.468 OA
ENDBRANCH   1  23
BRANCH   6  24
ATOM     24  O3  UNL     1     -51.398  62.799   8.722  0.00  0.00    -0.472 OA
BRANCH  24  25
ATOM     25  C20 UNL     1     -52.806  62.576   8.610  0.00  0.00    +0.206 C 
BRANCH  25  26
ATOM     26  C21 UNL     1     -53.187  61.203   9.182  0.00  0.00    +0.051 C 
BRANCH  26  27
ATOM     27  C22 UNL     1     -53.849  60.332   8.106  0.00  0.00    +0.051 C 
BRANCH  27  28
ATOM     28  C23 UNL     1     -54.324  61.175   6.920  0.00  0.00    +0.206 C 
BRANCH  28  29
ATOM     29  O4  UNL     1     -53.579  60.847   5.747  0.00  0.00    -0.475 OA
BRANCH  29  30
ATOM     30  C24 UNL     1     -53.464  61.650   4.599  0.00  0.00    +0.139 A 
ATOM     31  C25 UNL     1     -54.260  61.469   3.453  0.00  0.00    +0.037 A 
ATOM     32  C26 UNL     1     -54.115  62.318   2.350  0.00  0.00    +0.006 A 
ATOM     33  C27 UNL     1     -53.169  63.361   2.364  0.00  0.00    +0.040 A 
ATOM     34  C29 UNL     1     -52.367  63.524   3.508  0.00  0.00    +0.006 A 
ATOM     35  C30 UNL     1     -52.518  62.679   4.613  0.00  0.00    +0.037 A 
BRANCH  33  36
ATOM     36  C28 UNL     1     -53.025  64.281   1.197  0.00  0.00    +0.208 A 
ATOM     37  N3  UNL     1     -53.853  64.324   0.132  0.00  0.00    -0.106 NA
ATOM     38  N4  UNL     1     -53.369  65.264  -0.664  0.00  0.00    -0.021 NA
ATOM     39  N5  UNL     1     -52.285  65.790  -0.120  0.00  0.00    -0.021 NA
ATOM     40  N6  UNL     1     -52.044  65.197   1.038  0.00  0.00    -0.106 NA
ENDBRANCH  33  36
ENDBRANCH  29  30
ENDBRANCH  28  29
ENDBRANCH  27  28
ENDBRANCH  26  27
ENDBRANCH  25  26
ENDBRANCH  24  25
ENDBRANCH   6  24
TORSDOF 11
ENDMDL
MODEL 6
REMARK VINA RESULT:      -6.7      3.162      8.573
REMARK  Name = ./data/4wxx_site_bc02/pdb/l0c1.pdb
REMARK  11 active torsions:
REMARK  status: ('A' for Active; 'I' for Inactive)
REMARK    1  A    between atoms: O1_2  and  C2_3
REMARK    2  A    between atoms: C5_6  and  C6_7
REMARK    3  A    between atoms: N2_9  and  C7_10
REMARK    4  A    between atoms: C19_23  and  O3_24
REMARK    5  A    between atoms: O3_24  and  C20_25
REMARK    6  A    between atoms: C20_25  and  C21_26
REMARK    7  A    between atoms: C21_26  and  C22_27
REMARK    8  A    between atoms: C22_27  and  C23_28
REMARK    9  A    between atoms: C23_28  and  O4_29
REMARK   10  A    between atoms: O4_29  and  C24_30
REMARK   11  A    between atoms: C27_33  and  C28_34
REMARK                            x       y       z     vdW  Elec       q    Type
REMARK                         _______ _______ _______ _____ _____    ______ ____
ROOT
ATOM      1  C2  UNL     1     -54.008  59.463   6.782  0.00  0.00    +0.172 A 
ATOM      2  C3  UNL     1     -54.700  60.684   6.732  0.00  0.00    +0.040 A 
ATOM      3  C4  UNL     1     -54.102  61.815   6.170  0.00  0.00    +0.005 A 
ATOM      4  C5  UNL     1     -52.796  61.756   5.652  0.00  0.00    +0.019 A 
ATOM      5  C18 UNL     1     -52.128  60.521   5.662  0.00  0.00    +0.041 A 
ATOM      6  C19 UNL     1     -52.718  59.378   6.236  0.00  0.00    +0.172 A 
ENDROOT
BRANCH   4   7
ATOM      7  C6  UNL     1     -52.136  63.000   5.166  0.00  0.00    +0.086 C 
ATOM      8  N1  UNL     1     -50.970  63.356   5.604  0.00  0.00    -0.171 NA
ATOM      9  N2  UNL     1     -50.481  64.417   4.841  0.00  0.00    -0.222 N 
ATOM     10  C14 UNL     1     -51.333  64.731   3.920  0.00  0.00    +0.257 C 
ATOM     11  O2  UNL     1     -51.110  65.744   2.990  0.00  0.00    -0.270 OA
ATOM     12  C15 UNL     1     -52.566  63.878   3.995  0.00  0.00    +0.110 C 
ATOM     13  C16 UNL     1     -53.779  64.769   4.320  0.00  0.00    +0.015 C 
ATOM     14  C17 UNL     1     -52.746  63.074   2.693  0.00  0.00    +0.015 C 
BRANCH   9  15
ATOM     15  C7  UNL     1     -49.184  65.076   5.061  0.00  0.00    +0.108 C 
ATOM     16  C8  UNL     1     -48.438  65.321   3.719  0.00  0.00    +0.024 C 
ATOM     17  C9  UNL     1     -47.542  66.570   3.765  0.00  0.00    +0.002 C 
ATOM     18  C10 UNL     1     -46.233  66.373   4.535  0.00  0.00    +0.000 C 
ATOM     19  C11 UNL     1     -46.444  65.968   6.003  0.00  0.00    +0.000 C 
ATOM     20  C12 UNL     1     -46.851  64.493   6.132  0.00  0.00    +0.002 C 
ATOM     21  C13 UNL     1     -48.371  64.261   6.105  0.00  0.00    +0.024 C 
ENDBRANCH   9  15
ENDBRANCH   4   7
BRANCH   1  23
ATOM     22  C1  UNL     1     -54.809  57.094   6.671  0.00  0.00    +0.253 C 
ATOM     23  O1  UNL     1     -54.565  58.312   7.366  0.00  0.00    -0.468 OA
ENDBRANCH   1  23
BRANCH   6  24
ATOM     24  O3  UNL     1     -52.056  58.134   6.291  0.00  0.00    -0.472 OA
BRANCH  24  25
ATOM     25  C20 UNL     1     -51.122  57.650   5.324  0.00  0.00    +0.206 C 
BRANCH  25  26
ATOM     26  C21 UNL     1     -51.788  56.634   4.384  0.00  0.00    +0.051 C 
BRANCH  26  27
ATOM     27  C22 UNL     1     -50.735  55.896   3.548  0.00  0.00    +0.051 C 
BRANCH  27  28
ATOM     28  C23 UNL     1     -49.316  56.312   3.943  0.00  0.00    +0.206 C 
BRANCH  28  29
ATOM     29  O4  UNL     1     -48.760  55.372   4.862  0.00  0.00    -0.475 OA
BRANCH  29  30
ATOM     30  C24 UNL     1     -47.677  55.612   5.725  0.00  0.00    +0.139 A 
ATOM     31  C25 UNL     1     -47.489  56.833   6.400  0.00  0.00    +0.037 A 
ATOM     32  C26 UNL     1     -46.403  57.001   7.267  0.00  0.00    +0.006 A 
ATOM     33  C27 UNL     1     -45.477  55.960   7.473  0.00  0.00    +0.040 A 
ATOM     34  C29 UNL     1     -45.666  54.750   6.780  0.00  0.00    +0.006 A 
ATOM     35  C30 UNL     1     -46.755  54.580   5.920  0.00  0.00    +0.037 A 
BRANCH  33  36
ATOM     36  C28 UNL     1     -44.330  56.130   8.411  0.00  0.00    +0.208 A 
ATOM     37  N3  UNL     1     -43.212  56.841   8.154  0.00  0.00    -0.106 NA
ATOM     38  N4  UNL     1     -42.457  56.730   9.235  0.00  0.00    -0.021 NA
ATOM     39  N5  UNL     1     -43.076  55.982  10.133  0.00  0.00    -0.021 NA
ATOM     40  N6  UNL     1     -44.243  55.591   9.648  0.00  0.00    -0.106 NA
ENDBRANCH  33  36
ENDBRANCH  29  30
ENDBRANCH  28  29
ENDBRANCH  27  28
ENDBRANCH  26  27
ENDBRANCH  25  26
ENDBRANCH  24  25
ENDBRANCH   6  24
TORSDOF 11
ENDMDL
MODEL 7
REMARK VINA RESULT:      -6.5      3.522      7.742
REMARK  Name = ./data/4wxx_site_bc02/pdb/l0c1.pdb
REMARK  11 active torsions:
REMARK  status: ('A' for Active; 'I' for Inactive)
REMARK    1  A    between atoms: O1_2  and  C2_3
REMARK    2  A    between atoms: C5_6  and  C6_7
REMARK    3  A    between atoms: N2_9  and  C7_10
REMARK    4  A    between atoms: C19_23  and  O3_24
REMARK    5  A    between atoms: O3_24  and  C20_25
REMARK    6  A    between atoms: C20_25  and  C21_26
REMARK    7  A    between atoms: C21_26  and  C22_27
REMARK    8  A    between atoms: C22_27  and  C23_28
REMARK    9  A    between atoms: C23_28  and  O4_29
REMARK   10  A    between atoms: O4_29  and  C24_30
REMARK   11  A    between atoms: C27_33  and  C28_34
REMARK                            x       y       z     vdW  Elec       q    Type
REMARK                         _______ _______ _______ _____ _____    ______ ____
ROOT
ATOM      1  C2  UNL     1     -50.230  63.293   6.167  0.00  0.00    +0.172 A 
ATOM      2  C3  UNL     1     -48.932  63.072   5.678  0.00  0.00    +0.040 A 
ATOM      3  C4  UNL     1     -48.382  61.788   5.684  0.00  0.00    +0.005 A 
ATOM      4  C5  UNL     1     -49.111  60.695   6.184  0.00  0.00    +0.019 A 
ATOM      5  C18 UNL     1     -50.425  60.914   6.626  0.00  0.00    +0.041 A 
ATOM      6  C19 UNL     1     -50.985  62.207   6.635  0.00  0.00    +0.172 A 
ENDROOT
BRANCH   4   7
ATOM      7  C6  UNL     1     -48.462  59.358   6.288  0.00  0.00    +0.086 C 
ATOM      8  N1  UNL     1     -47.309  59.214   6.861  0.00  0.00    -0.171 NA
ATOM      9  N2  UNL     1     -47.027  57.858   7.027  0.00  0.00    -0.222 N 
ATOM     10  C14 UNL     1     -48.001  57.143   6.564  0.00  0.00    +0.257 C 
ATOM     11  O2  UNL     1     -48.011  55.751   6.608  0.00  0.00    -0.270 OA
ATOM     12  C15 UNL     1     -49.086  58.001   5.979  0.00  0.00    +0.110 C 
ATOM     13  C16 UNL     1     -49.200  57.716   4.471  0.00  0.00    +0.015 C 
ATOM     14  C17 UNL     1     -50.412  57.779   6.732  0.00  0.00    +0.015 C 
BRANCH   9  15
ATOM     15  C7  UNL     1     -45.799  57.328   7.639  0.00  0.00    +0.108 C 
ATOM     16  C8  UNL     1     -45.224  56.140   6.818  0.00  0.00    +0.024 C 
ATOM     17  C9  UNL     1     -43.692  56.043   6.921  0.00  0.00    +0.002 C 
ATOM     18  C10 UNL     1     -43.190  55.459   8.245  0.00  0.00    +0.000 C 
ATOM     19  C11 UNL     1     -43.632  56.269   9.475  0.00  0.00    +0.000 C 
ATOM     20  C12 UNL     1     -45.108  56.022   9.818  0.00  0.00    +0.002 C 
ATOM     21  C13 UNL     1     -46.079  56.998   9.131  0.00  0.00    +0.024 C 
ENDBRANCH   9  15
ENDBRANCH   4   7
BRANCH   1  23
ATOM     22  C1  UNL     1     -50.973  65.347   7.390  0.00  0.00    +0.253 C 
ATOM     23  O1  UNL     1     -50.807  64.575   6.206  0.00  0.00    -0.468 OA
ENDBRANCH   1  23
BRANCH   6  24
ATOM     24  O3  UNL     1     -52.290  62.461   7.108  0.00  0.00    -0.472 OA
BRANCH  24  25
ATOM     25  C20 UNL     1     -53.236  61.465   7.502  0.00  0.00    +0.206 C 
BRANCH  25  26
ATOM     26  C21 UNL     1     -54.404  61.400   6.507  0.00  0.00    +0.051 C 
BRANCH  26  27
ATOM     27  C22 UNL     1     -53.956  60.763   5.185  0.00  0.00    +0.051 C 
BRANCH  27  28
ATOM     28  C23 UNL     1     -54.702  59.454   4.915  0.00  0.00    +0.206 C 
BRANCH  28  29
ATOM     29  O4  UNL     1     -54.453  58.515   5.961  0.00  0.00    -0.475 OA
BRANCH  29  30
ATOM     30  C24 UNL     1     -54.159  57.152   5.785  0.00  0.00    +0.139 A 
ATOM     31  C25 UNL     1     -54.902  56.121   6.389  0.00  0.00    +0.037 A 
ATOM     32  C26 UNL     1     -54.575  54.781   6.153  0.00  0.00    +0.006 A 
ATOM     33  C27 UNL     1     -53.493  54.441   5.317  0.00  0.00    +0.040 A 
ATOM     34  C29 UNL     1     -52.746  55.479   4.731  0.00  0.00    +0.006 A 
ATOM     35  C30 UNL     1     -53.080  56.817   4.961  0.00  0.00    +0.037 A 
BRANCH  33  36
ATOM     36  C28 UNL     1     -53.153  53.013   5.049  0.00  0.00    +0.208 A 
ATOM     37  N3  UNL     1     -53.369  51.987   5.899  0.00  0.00    -0.106 NA
ATOM     38  N4  UNL     1     -52.922  50.906   5.281  0.00  0.00    -0.021 NA
ATOM     39  N5  UNL     1     -52.448  51.239   4.092  0.00  0.00    -0.021 NA
ATOM     40  N6  UNL     1     -52.576  52.544   3.919  0.00  0.00    -0.106 NA
ENDBRANCH  33  36
ENDBRANCH  29  30
ENDBRANCH  28  29
ENDBRANCH  27  28
ENDBRANCH  26  27
ENDBRANCH  25  26
ENDBRANCH  24  25
ENDBRANCH   6  24
TORSDOF 11
ENDMDL
