MODEL 1
REMARK VINA RESULT:      -6.0      0.000      0.000
REMARK  Name = ./data/4wxx_site_bc02/pdb/l1c0.pdb
REMARK  11 active torsions:
REMARK  status: ('A' for Active; 'I' for Inactive)
REMARK    1  A    between atoms: O1_2  and  C2_3
REMARK    2  A    between atoms: C5_6  and  C6_7
REMARK    3  A    between atoms: N2_9  and  C7_10
REMARK    4  A    between atoms: C22_26  and  O3_27
REMARK    5  A    between atoms: O3_27  and  C23_28
REMARK    6  A    between atoms: C23_28  and  C24_29
REMARK    7  A    between atoms: C24_29  and  C25_30
REMARK    8  A    between atoms: C25_30  and  C26_31
REMARK    9  A    between atoms: C26_31  and  O4_32
REMARK   10  A    between atoms: O4_32  and  C27_33
REMARK   11  A    between atoms: C30_36  and  C31_37
REMARK                            x       y       z     vdW  Elec       q    Type
REMARK                         _______ _______ _______ _____ _____    ______ ____
ROOT
ATOM      1  C2  UNL     1     -43.946  30.881  -7.019  0.00  0.00    +0.172 A 
ATOM      2  C3  UNL     1     -42.808  31.235  -6.276  0.00  0.00    +0.040 A 
ATOM      3  C4  UNL     1     -41.615  31.561  -6.922  0.00  0.00    +0.005 A 
ATOM      4  C5  UNL     1     -41.527  31.550  -8.325  0.00  0.00    +0.018 A 
ATOM      5  C21 UNL     1     -42.675  31.208  -9.066  0.00  0.00    +0.041 A 
ATOM      6  C22 UNL     1     -43.877  30.852  -8.419  0.00  0.00    +0.172 A 
ENDROOT
BRANCH   4   7
ATOM      7  C6  UNL     1     -40.235  31.904  -8.991  0.00  0.00    +0.079 C 
ATOM      8  N1  UNL     1     -39.140  31.858  -8.291  0.00  0.00    -0.172 NA
ATOM      9  N2  UNL     1     -37.862  32.167  -8.799  0.00  0.00    -0.222 N 
ATOM     10  C14 UNL     1     -37.656  32.264 -10.094  0.00  0.00    +0.253 C 
ATOM     11  O2  UNL     1     -36.359  32.471 -10.575  0.00  0.00    -0.271 OA
ATOM     12  C15 UNL     1     -38.810  32.064 -11.069  0.00  0.00    +0.091 C 
ATOM     13  C16 UNL     1     -38.660  32.885 -12.366  0.00  0.00    +0.035 C 
ATOM     14  C17 UNL     1     -38.647  34.346 -12.035  0.00  0.00    -0.030 C 
ATOM     15  C18 UNL     1     -39.493  34.828 -11.116  0.00  0.00    -0.030 C 
ATOM     16  C19 UNL     1     -40.528  33.947 -10.454  0.00  0.00    +0.032 C 
ATOM     17  C20 UNL     1     -40.173  32.422 -10.412  0.00  0.00    +0.056 C 
BRANCH   9  18
ATOM     18  C7  UNL     1     -36.772  32.294  -7.807  0.00  0.00    +0.108 C 
ATOM     19  C8  UNL     1     -36.421  33.785  -7.552  0.00  0.00    +0.024 C 
ATOM     20  C9  UNL     1     -34.938  33.990  -7.205  0.00  0.00    +0.002 C 
ATOM     21  C10 UNL     1     -34.589  33.622  -5.760  0.00  0.00    +0.000 C 
ATOM     22  C11 UNL     1     -34.876  32.155  -5.415  0.00  0.00    +0.000 C 
ATOM     23  C12 UNL     1     -36.380  31.882  -5.246  0.00  0.00    +0.002 C 
ATOM     24  C13 UNL     1     -37.087  31.452  -6.541  0.00  0.00    +0.024 C 
ENDBRANCH   9  18
ENDBRANCH   4   7
BRANCH   1  26
ATOM     25  C1  UNL     1     -45.533  30.941  -5.087  0.00  0.00    +0.253 C 
ATOM     26  O1  UNL     1     -45.163  30.547  -6.405  0.00  0.00    -0.468 OA
ENDBRANCH   1  26
BRANCH   6  27
ATOM     27  O3  UNL     1     -45.029  30.468  -9.127  0.00  0.00    -0.472 OA
BRANCH  27  28
ATOM     28  C23 UNL     1     -45.991  31.353  -9.699  0.00  0.00    +0.206 C 
BRANCH  28  29
ATOM     29  C24 UNL     1     -47.265  31.386  -8.851  0.00  0.00    +0.051 C 
BRANCH  29  30
ATOM     30  C25 UNL     1     -47.528  32.791  -8.296  0.00  0.00    +0.051 C 
BRANCH  30  31
ATOM     31  C26 UNL     1     -46.232  33.589  -8.162  0.00  0.00    +0.206 C 
BRANCH  31  32
ATOM     32  O4  UNL     1     -45.944  33.794  -6.779  0.00  0.00    -0.475 OA
BRANCH  32  33
ATOM     33  C27 UNL     1     -44.821  34.474  -6.289  0.00  0.00    +0.139 A 
ATOM     34  C28 UNL     1     -44.864  34.960  -4.980  0.00  0.00    +0.037 A 
ATOM     35  C29 UNL     1     -43.789  35.673  -4.449  0.00  0.00    +0.006 A 
ATOM     36  C30 UNL     1     -42.630  35.900  -5.217  0.00  0.00    +0.040 A 
ATOM     37  C32 UNL     1     -42.578  35.386  -6.529  0.00  0.00    +0.006 A 
ATOM     38  C33 UNL     1     -43.665  34.686  -7.062  0.00  0.00    +0.037 A 
BRANCH  36  39
ATOM     39  C31 UNL     1     -41.490  36.671  -4.657  0.00  0.00    +0.208 A 
ATOM     40  N3  UNL     1     -40.770  36.323  -3.568  0.00  0.00    -0.106 NA
ATOM     41  N4  UNL     1     -39.849  37.261  -3.432  0.00  0.00    -0.021 NA
ATOM     42  N5  UNL     1     -39.987  38.160  -4.391  0.00  0.00    -0.021 NA
ATOM     43  N6  UNL     1     -40.997  37.820  -5.171  0.00  0.00    -0.106 NA
ENDBRANCH  36  39
ENDBRANCH  32  33
ENDBRANCH  31  32
ENDBRANCH  30  31
ENDBRANCH  29  30
ENDBRANCH  28  29
ENDBRANCH  27  28
ENDBRANCH   6  27
TORSDOF 11
ENDMDL
MODEL 2
REMARK VINA RESULT:      -5.7      4.458      8.398
REMARK  Name = ./data/4wxx_site_bc02/pdb/l1c0.pdb
REMARK  11 active torsions:
REMARK  status: ('A' for Active; 'I' for Inactive)
REMARK    1  A    between atoms: O1_2  and  C2_3
REMARK    2  A    between atoms: C5_6  and  C6_7
REMARK    3  A    between atoms: N2_9  and  C7_10
REMARK    4  A    between atoms: C22_26  and  O3_27
REMARK    5  A    between atoms: O3_27  and  C23_28
REMARK    6  A    between atoms: C23_28  and  C24_29
REMARK    7  A    between atoms: C24_29  and  C25_30
REMARK    8  A    between atoms: C25_30  and  C26_31
REMARK    9  A    between atoms: C26_31  and  O4_32
REMARK   10  A    between atoms: O4_32  and  C27_33
REMARK   11  A    between atoms: C30_36  and  C31_37
REMARK                            x       y       z     vdW  Elec       q    Type
REMARK                         _______ _______ _______ _____ _____    ______ ____
ROOT
ATOM      1  C2  UNL     1     -31.813  30.528  -5.325  0.00  0.00    +0.172 A 
ATOM      2  C3  UNL     1     -30.630  30.559  -6.082  0.00  0.00    +0.040 A 
ATOM      3  C4  UNL     1     -30.634  31.074  -7.378  0.00  0.00    +0.005 A 
ATOM      4  C5  UNL     1     -31.815  31.579  -7.952  0.00  0.00    +0.018 A 
ATOM      5  C21 UNL     1     -32.995  31.558  -7.184  0.00  0.00    +0.041 A 
ATOM      6  C22 UNL     1     -33.004  31.015  -5.881  0.00  0.00    +0.172 A 
ENDROOT
BRANCH   4   7
ATOM      7  C6  UNL     1     -31.790  32.125  -9.344  0.00  0.00    +0.079 C 
ATOM      8  N1  UNL     1     -32.751  32.915  -9.721  0.00  0.00    -0.172 NA
ATOM      9  N2  UNL     1     -32.845  33.495 -11.003  0.00  0.00    -0.222 N 
ATOM     10  C14 UNL     1     -31.817  33.487 -11.822  0.00  0.00    +0.253 C 
ATOM     11  O2  UNL     1     -31.903  34.156 -13.048  0.00  0.00    -0.271 OA
ATOM     12  C15 UNL     1     -30.508  32.828 -11.403  0.00  0.00    +0.091 C 
ATOM     13  C16 UNL     1     -29.715  32.239 -12.588  0.00  0.00    +0.035 C 
ATOM     14  C17 UNL     1     -30.526  31.166 -13.248  0.00  0.00    -0.030 C 
ATOM     15  C18 UNL     1     -31.216  30.297 -12.498  0.00  0.00    -0.030 C 
ATOM     16  C19 UNL     1     -31.137  30.317 -10.989  0.00  0.00    +0.032 C 
ATOM     17  C20 UNL     1     -30.752  31.699 -10.362  0.00  0.00    +0.056 C 
BRANCH   9  18
ATOM     18  C7  UNL     1     -34.120  34.167 -11.331  0.00  0.00    +0.108 C 
ATOM     19  C8  UNL     1     -34.972  33.306 -12.302  0.00  0.00    +0.024 C 
ATOM     20  C9  UNL     1     -35.836  34.159 -13.244  0.00  0.00    +0.002 C 
ATOM     21  C10 UNL     1     -37.096  34.720 -12.578  0.00  0.00    +0.000 C 
ATOM     22  C11 UNL     1     -36.802  35.630 -11.378  0.00  0.00    +0.000 C 
ATOM     23  C12 UNL     1     -36.361  34.832 -10.139  0.00  0.00    +0.002 C 
ATOM     24  C13 UNL     1     -34.841  34.629 -10.036  0.00  0.00    +0.024 C 
ENDBRANCH   9  18
ENDBRANCH   4   7
BRANCH   1  26
ATOM     25  C1  UNL     1     -30.917  30.361  -2.996  0.00  0.00    +0.253 C 
ATOM     26  O1  UNL     1     -31.848  30.018  -4.018  0.00  0.00    -0.468 OA
ENDBRANCH   1  26
BRANCH   6  27
ATOM     27  O3  UNL     1     -34.172  30.943  -5.103  0.00  0.00    -0.472 OA
BRANCH  27  28
ATOM     28  C23 UNL     1     -35.442  30.467  -5.546  0.00  0.00    +0.206 C 
BRANCH  28  29
ATOM     29  C24 UNL     1     -36.515  31.544  -5.363  0.00  0.00    +0.051 C 
BRANCH  29  30
ATOM     30  C25 UNL     1     -35.947  32.945  -5.620  0.00  0.00    +0.051 C 
BRANCH  30  31
ATOM     31  C26 UNL     1     -36.852  33.752  -6.550  0.00  0.00    +0.206 C 
BRANCH  31  32
ATOM     32  O4  UNL     1     -37.552  34.738  -5.792  0.00  0.00    -0.475 OA
BRANCH  32  33
ATOM     33  C27 UNL     1     -38.946  34.878  -5.756  0.00  0.00    +0.139 A 
ATOM     34  C28 UNL     1     -39.722  33.901  -6.383  0.00  0.00    +0.037 A 
ATOM     35  C29 UNL     1     -41.114  34.006  -6.410  0.00  0.00    +0.006 A 
ATOM     36  C30 UNL     1     -41.763  35.090  -5.787  0.00  0.00    +0.040 A 
ATOM     37  C32 UNL     1     -40.979  36.060  -5.132  0.00  0.00    +0.006 A 
ATOM     38  C33 UNL     1     -39.584  35.960  -5.122  0.00  0.00    +0.037 A 
BRANCH  36  39
ATOM     39  C31 UNL     1     -43.243  35.208  -5.826  0.00  0.00    +0.208 A 
ATOM     40  N3  UNL     1     -44.003  35.833  -4.900  0.00  0.00    -0.106 NA
ATOM     41  N4  UNL     1     -45.250  35.726  -5.326  0.00  0.00    -0.021 NA
ATOM     42  N5  UNL     1     -45.271  35.060  -6.468  0.00  0.00    -0.021 NA
ATOM     43  N6  UNL     1     -44.040  34.727  -6.807  0.00  0.00    -0.106 NA
ENDBRANCH  36  39
ENDBRANCH  32  33
ENDBRANCH  31  32
ENDBRANCH  30  31
ENDBRANCH  29  30
ENDBRANCH  28  29
ENDBRANCH  27  28
ENDBRANCH   6  27
TORSDOF 11
ENDMDL
MODEL 3
REMARK VINA RESULT:      -5.4      4.189      7.927
REMARK  Name = ./data/4wxx_site_bc02/pdb/l1c0.pdb
REMARK  11 active torsions:
REMARK  status: ('A' for Active; 'I' for Inactive)
REMARK    1  A    between atoms: O1_2  and  C2_3
REMARK    2  A    between atoms: C5_6  and  C6_7
REMARK    3  A    between atoms: N2_9  and  C7_10
REMARK    4  A    between atoms: C22_26  and  O3_27
REMARK    5  A    between atoms: O3_27  and  C23_28
REMARK    6  A    between atoms: C23_28  and  C24_29
REMARK    7  A    between atoms: C24_29  and  C25_30
REMARK    8  A    between atoms: C25_30  and  C26_31
REMARK    9  A    between atoms: C26_31  and  O4_32
REMARK   10  A    between atoms: O4_32  and  C27_33
REMARK   11  A    between atoms: C30_36  and  C31_37
REMARK                            x       y       z     vdW  Elec       q    Type
REMARK                         _______ _______ _______ _____ _____    ______ ____
ROOT
ATOM      1  C2  UNL     1     -32.875  30.399  -5.502  0.00  0.00    +0.172 A 
ATOM      2  C3  UNL     1     -31.853  29.946  -6.352  0.00  0.00    +0.040 A 
ATOM      3  C4  UNL     1     -31.722  30.469  -7.639  0.00  0.00    +0.005 A 
ATOM      4  C5  UNL     1     -32.599  31.462  -8.110  0.00  0.00    +0.018 A 
ATOM      5  C21 UNL     1     -33.613  31.922  -7.247  0.00  0.00    +0.041 A 
ATOM      6  C22 UNL     1     -33.768  31.381  -5.954  0.00  0.00    +0.172 A 
ENDROOT
BRANCH   4   7
ATOM      7  C6  UNL     1     -32.434  32.003  -9.494  0.00  0.00    +0.079 C 
ATOM      8  N1  UNL     1     -33.281  32.893  -9.920  0.00  0.00    -0.172 NA
ATOM      9  N2  UNL     1     -33.237  33.480 -11.201  0.00  0.00    -0.222 N 
ATOM     10  C14 UNL     1     -32.169  33.363 -11.959  0.00  0.00    +0.253 C 
ATOM     11  O2  UNL     1     -32.111  34.039 -13.182  0.00  0.00    -0.271 OA
ATOM     12  C15 UNL     1     -30.965  32.567 -11.469  0.00  0.00    +0.091 C 
ATOM     13  C16 UNL     1     -30.172  31.898 -12.610  0.00  0.00    +0.035 C 
ATOM     14  C17 UNL     1     -31.053  30.918 -13.324  0.00  0.00    -0.030 C 
ATOM     15  C18 UNL     1     -31.875  30.128 -12.622  0.00  0.00    -0.030 C 
ATOM     16  C19 UNL     1     -31.883  30.137 -11.111  0.00  0.00    +0.032 C 
ATOM     17  C20 UNL     1     -31.390  31.470 -10.452  0.00  0.00    +0.056 C 
BRANCH   9  18
ATOM     18  C7  UNL     1     -34.411  34.286 -11.598  0.00  0.00    +0.108 C 
ATOM     19  C8  UNL     1     -35.350  33.480 -12.536  0.00  0.00    +0.024 C 
ATOM     20  C9  UNL     1     -36.085  34.376 -13.546  0.00  0.00    +0.002 C 
ATOM     21  C10 UNL     1     -37.274  35.131 -12.943  0.00  0.00    +0.000 C 
ATOM     22  C11 UNL     1     -36.885  36.069 -11.793  0.00  0.00    +0.000 C 
ATOM     23  C12 UNL     1     -36.568  35.299 -10.500  0.00  0.00    +0.002 C 
ATOM     24  C13 UNL     1     -35.088  34.914 -10.349  0.00  0.00    +0.024 C 
ENDBRANCH   9  18
ENDBRANCH   4   7
BRANCH   1  26
ATOM     25  C1  UNL     1     -32.019  29.893  -3.207  0.00  0.00    +0.253 C 
ATOM     26  O1  UNL     1     -33.039  29.898  -4.201  0.00  0.00    -0.468 OA
ENDBRANCH   1  26
BRANCH   6  27
ATOM     27  O3  UNL     1     -34.793  31.790  -5.084  0.00  0.00    -0.472 OA
BRANCH  27  28
ATOM     28  C23 UNL     1     -36.142  31.324  -5.106  0.00  0.00    +0.206 C 
BRANCH  28  29
ATOM     29  C24 UNL     1     -36.322  30.242  -6.174  0.00  0.00    +0.051 C 
BRANCH  29  30
ATOM     30  C25 UNL     1     -37.694  30.348  -6.849  0.00  0.00    +0.051 C 
BRANCH  30  31
ATOM     31  C26 UNL     1     -37.563  30.737  -8.321  0.00  0.00    +0.206 C 
BRANCH  31  32
ATOM     32  O4  UNL     1     -38.333  31.912  -8.570  0.00  0.00    -0.475 OA
BRANCH  32  33
ATOM     33  C27 UNL     1     -38.564  32.930  -7.635  0.00  0.00    +0.139 A 
ATOM     34  C28 UNL     1     -39.872  33.127  -7.186  0.00  0.00    +0.037 A 
ATOM     35  C29 UNL     1     -40.168  34.148  -6.281  0.00  0.00    +0.006 A 
ATOM     36  C30 UNL     1     -39.150  34.986  -5.788  0.00  0.00    +0.040 A 
ATOM     37  C32 UNL     1     -37.827  34.769  -6.222  0.00  0.00    +0.006 A 
ATOM     38  C33 UNL     1     -37.537  33.755  -7.142  0.00  0.00    +0.037 A 
BRANCH  36  39
ATOM     39  C31 UNL     1     -39.467  36.081  -4.835  0.00  0.00    +0.208 A 
ATOM     40  N3  UNL     1     -39.388  37.402  -5.106  0.00  0.00    -0.106 NA
ATOM     41  N4  UNL     1     -39.775  38.019  -4.003  0.00  0.00    -0.021 NA
ATOM     42  N5  UNL     1     -40.080  37.124  -3.079  0.00  0.00    -0.021 NA
ATOM     43  N6  UNL     1     -39.902  35.910  -3.566  0.00  0.00    -0.106 NA
ENDBRANCH  36  39
ENDBRANCH  32  33
ENDBRANCH  31  32
ENDBRANCH  30  31
ENDBRANCH  29  30
ENDBRANCH  28  29
ENDBRANCH  27  28
ENDBRANCH   6  27
TORSDOF 11
ENDMDL
MODEL 4
REMARK VINA RESULT:      -5.3      3.100      4.534
REMARK  Name = ./data/4wxx_site_bc02/pdb/l1c0.pdb
REMARK  11 active torsions:
REMARK  status: ('A' for Active; 'I' for Inactive)
REMARK    1  A    between atoms: O1_2  and  C2_3
REMARK    2  A    between atoms: C5_6  and  C6_7
REMARK    3  A    between atoms: N2_9  and  C7_10
REMARK    4  A    between atoms: C22_26  and  O3_27
REMARK    5  A    between atoms: O3_27  and  C23_28
REMARK    6  A    between atoms: C23_28  and  C24_29
REMARK    7  A    between atoms: C24_29  and  C25_30
REMARK    8  A    between atoms: C25_30  and  C26_31
REMARK    9  A    between atoms: C26_31  and  O4_32
REMARK   10  A    between atoms: O4_32  and  C27_33
REMARK   11  A    between atoms: C30_36  and  C31_37
REMARK                            x       y       z     vdW  Elec       q    Type
REMARK                         _______ _______ _______ _____ _____    ______ ____
ROOT
ATOM      1  C2  UNL     1     -42.437  34.563  -4.949  0.00  0.00    +0.172 A 
ATOM      2  C3  UNL     1     -41.328  35.276  -5.435  0.00  0.00    +0.040 A 
ATOM      3  C4  UNL     1     -40.469  34.696  -6.368  0.00  0.00    +0.005 A 
ATOM      4  C5  UNL     1     -40.696  33.394  -6.849  0.00  0.00    +0.018 A 
ATOM      5  C21 UNL     1     -41.818  32.690  -6.369  0.00  0.00    +0.041 A 
ATOM      6  C22 UNL     1     -42.676  33.260  -5.406  0.00  0.00    +0.172 A 
ENDROOT
BRANCH   4   7
ATOM      7  C6  UNL     1     -39.758  32.797  -7.849  0.00  0.00    +0.079 C 
ATOM      8  N1  UNL     1     -38.546  32.512  -7.475  0.00  0.00    -0.172 NA
ATOM      9  N2  UNL     1     -37.568  31.948  -8.319  0.00  0.00    -0.222 N 
ATOM     10  C14 UNL     1     -37.899  31.422  -9.477  0.00  0.00    +0.253 C 
ATOM     11  O2  UNL     1     -36.926  30.779 -10.249  0.00  0.00    -0.271 OA
ATOM     12  C15 UNL     1     -39.353  31.434  -9.936  0.00  0.00    +0.091 C 
ATOM     13  C16 UNL     1     -39.507  31.505 -11.469  0.00  0.00    +0.035 C 
ATOM     14  C17 UNL     1     -38.902  32.779 -11.975  0.00  0.00    -0.030 C 
ATOM     15  C18 UNL     1     -39.094  33.920 -11.301  0.00  0.00    -0.030 C 
ATOM     16  C19 UNL     1     -39.978  33.977 -10.077  0.00  0.00    +0.032 C 
ATOM     17  C20 UNL     1     -40.134  32.623  -9.306  0.00  0.00    +0.056 C 
BRANCH   9  18
ATOM     18  C7  UNL     1     -36.186  31.914  -7.795  0.00  0.00    +0.108 C 
ATOM     19  C8  UNL     1     -35.427  33.225  -8.137  0.00  0.00    +0.024 C 
ATOM     20  C9  UNL     1     -33.920  32.999  -8.337  0.00  0.00    +0.002 C 
ATOM     21  C10 UNL     1     -33.143  32.848  -7.026  0.00  0.00    +0.000 C 
ATOM     22  C11 UNL     1     -33.610  31.664  -6.169  0.00  0.00    +0.000 C 
ATOM     23  C12 UNL     1     -34.955  31.943  -5.477  0.00  0.00    +0.002 C 
ATOM     24  C13 UNL     1     -36.181  31.507  -6.296  0.00  0.00    +0.024 C 
ENDBRANCH   9  18
ENDBRANCH   4   7
BRANCH   1  26
ATOM     25  C1  UNL     1     -43.072  35.182  -2.611  0.00  0.00    +0.253 C 
ATOM     26  O1  UNL     1     -43.324  35.113  -4.010  0.00  0.00    -0.468 OA
ENDBRANCH   1  26
BRANCH   6  27
ATOM     27  O3  UNL     1     -43.781  32.569  -4.878  0.00  0.00    -0.472 OA
BRANCH  27  28
ATOM     28  C23 UNL     1     -43.753  31.679  -3.763  0.00  0.00    +0.206 C 
BRANCH  28  29
ATOM     29  C24 UNL     1     -44.242  30.287  -4.172  0.00  0.00    +0.051 C 
BRANCH  29  30
ATOM     30  C25 UNL     1     -45.730  30.307  -4.542  0.00  0.00    +0.051 C 
BRANCH  30  31
ATOM     31  C26 UNL     1     -46.606  30.588  -3.322  0.00  0.00    +0.206 C 
BRANCH  31  32
ATOM     32  O4  UNL     1     -47.299  31.821  -3.511  0.00  0.00    -0.475 OA
BRANCH  32  33
ATOM     33  C27 UNL     1     -47.328  32.546  -4.710  0.00  0.00    +0.139 A 
ATOM     34  C28 UNL     1     -48.052  32.019  -5.781  0.00  0.00    +0.037 A 
ATOM     35  C29 UNL     1     -48.090  32.680  -7.010  0.00  0.00    +0.006 A 
ATOM     36  C30 UNL     1     -47.412  33.902  -7.187  0.00  0.00    +0.040 A 
ATOM     37  C32 UNL     1     -46.703  34.446  -6.097  0.00  0.00    +0.006 A 
ATOM     38  C33 UNL     1     -46.656  33.772  -4.872  0.00  0.00    +0.037 A 
BRANCH  36  39
ATOM     39  C31 UNL     1     -47.441  34.600  -8.499  0.00  0.00    +0.208 A 
ATOM     40  N3  UNL     1     -46.963  34.101  -9.660  0.00  0.00    -0.106 NA
ATOM     41  N4  UNL     1     -47.206  35.025 -10.574  0.00  0.00    -0.021 NA
ATOM     42  N5  UNL     1     -47.807  36.058 -10.010  0.00  0.00    -0.021 NA
ATOM     43  N6  UNL     1     -47.970  35.824  -8.721  0.00  0.00    -0.106 NA
ENDBRANCH  36  39
ENDBRANCH  32  33
ENDBRANCH  31  32
ENDBRANCH  30  31
ENDBRANCH  29  30
ENDBRANCH  28  29
ENDBRANCH  27  28
ENDBRANCH   6  27
TORSDOF 11
ENDMDL
MODEL 5
REMARK VINA RESULT:      -4.8      3.645      7.970
REMARK  Name = ./data/4wxx_site_bc02/pdb/l1c0.pdb
REMARK  11 active torsions:
REMARK  status: ('A' for Active; 'I' for Inactive)
REMARK    1  A    between atoms: O1_2  and  C2_3
REMARK    2  A    between atoms: C5_6  and  C6_7
REMARK    3  A    between atoms: N2_9  and  C7_10
REMARK    4  A    between atoms: C22_26  and  O3_27
REMARK    5  A    between atoms: O3_27  and  C23_28
REMARK    6  A    between atoms: C23_28  and  C24_29
REMARK    7  A    between atoms: C24_29  and  C25_30
REMARK    8  A    between atoms: C25_30  and  C26_31
REMARK    9  A    between atoms: C26_31  and  O4_32
REMARK   10  A    between atoms: O4_32  and  C27_33
REMARK   11  A    between atoms: C30_36  and  C31_37
REMARK                            x       y       z     vdW  Elec       q    Type
REMARK                         _______ _______ _______ _____ _____    ______ ____
ROOT
ATOM      1  C2  UNL     1     -31.527  30.907  -5.711  0.00  0.00    +0.172 A 
ATOM      2  C3  UNL     1     -30.725  31.624  -6.614  0.00  0.00    +0.040 A 
ATOM      3  C4  UNL     1     -31.265  32.118  -7.802  0.00  0.00    +0.005 A 
ATOM      4  C5  UNL     1     -32.620  31.917  -8.119  0.00  0.00    +0.018 A 
ATOM      5  C21 UNL     1     -33.423  31.209  -7.203  0.00  0.00    +0.041 A 
ATOM      6  C22 UNL     1     -32.879  30.685  -6.012  0.00  0.00    +0.172 A 
ENDROOT
BRANCH   4   7
ATOM      7  C6  UNL     1     -33.171  32.457  -9.400  0.00  0.00    +0.079 C 
ATOM      8  N1  UNL     1     -34.456  32.633  -9.500  0.00  0.00    -0.172 NA
ATOM      9  N2  UNL     1     -35.100  33.134 -10.650  0.00  0.00    -0.222 N 
ATOM     10  C14 UNL     1     -34.412  33.711 -11.610  0.00  0.00    +0.253 C 
ATOM     11  O2  UNL     1     -35.084  34.288 -12.692  0.00  0.00    -0.271 OA
ATOM     12  C15 UNL     1     -32.896  33.828 -11.502  0.00  0.00    +0.091 C 
ATOM     13  C16 UNL     1     -32.184  33.805 -12.870  0.00  0.00    +0.035 C 
ATOM     14  C17 UNL     1     -32.451  32.498 -13.551  0.00  0.00    -0.030 C 
ATOM     15  C18 UNL     1     -32.423  31.361 -12.843  0.00  0.00    -0.030 C 
ATOM     16  C19 UNL     1     -32.050  31.350 -11.379  0.00  0.00    +0.032 C 
ATOM     17  C20 UNL     1     -32.303  32.695 -10.617  0.00  0.00    +0.056 C 
BRANCH   9  18
ATOM     18  C7  UNL     1     -36.575  33.041 -10.672  0.00  0.00    +0.108 C 
ATOM     19  C8  UNL     1     -37.216  34.416 -11.000  0.00  0.00    +0.024 C 
ATOM     20  C9  UNL     1     -38.584  34.606 -10.325  0.00  0.00    +0.002 C 
ATOM     21  C10 UNL     1     -39.724  33.865 -11.030  0.00  0.00    +0.000 C 
ATOM     22  C11 UNL     1     -39.521  32.346 -11.093  0.00  0.00    +0.000 C 
ATOM     23  C12 UNL     1     -38.460  31.944 -12.131  0.00  0.00    +0.002 C 
ATOM     24  C13 UNL     1     -37.034  31.856 -11.566  0.00  0.00    +0.024 C 
ENDBRANCH   9  18
ENDBRANCH   4   7
BRANCH   1  26
ATOM     25  C1  UNL     1     -29.974  31.002  -3.753  0.00  0.00    +0.253 C 
ATOM     26  O1  UNL     1     -31.020  30.396  -4.506  0.00  0.00    -0.468 OA
ENDBRANCH   1  26
BRANCH   6  27
ATOM     27  O3  UNL     1     -33.643  29.941  -5.097  0.00  0.00    -0.472 OA
BRANCH  27  28
ATOM     28  C23 UNL     1     -34.880  30.351  -4.516  0.00  0.00    +0.206 C 
BRANCH  28  29
ATOM     29  C24 UNL     1     -36.055  29.958  -5.415  0.00  0.00    +0.051 C 
BRANCH  29  30
ATOM     30  C25 UNL     1     -36.804  31.195  -5.925  0.00  0.00    +0.051 C 
BRANCH  30  31
ATOM     31  C26 UNL     1     -37.496  30.917  -7.259  0.00  0.00    +0.206 C 
BRANCH  31  32
ATOM     32  O4  UNL     1     -38.055  32.129  -7.764  0.00  0.00    -0.475 OA
BRANCH  32  33
ATOM     33  C27 UNL     1     -39.138  32.809  -7.191  0.00  0.00    +0.139 A 
ATOM     34  C28 UNL     1     -40.395  32.201  -7.237  0.00  0.00    +0.037 A 
ATOM     35  C29 UNL     1     -41.517  32.846  -6.713  0.00  0.00    +0.006 A 
ATOM     36  C30 UNL     1     -41.400  34.114  -6.111  0.00  0.00    +0.040 A 
ATOM     37  C32 UNL     1     -40.126  34.714  -6.043  0.00  0.00    +0.006 A 
ATOM     38  C33 UNL     1     -39.008  34.071  -6.584  0.00  0.00    +0.037 A 
BRANCH  36  39
ATOM     39  C31 UNL     1     -42.596  34.805  -5.566  0.00  0.00    +0.208 A 
ATOM     40  N3  UNL     1     -42.779  35.151  -4.273  0.00  0.00    -0.106 NA
ATOM     41  N4  UNL     1     -43.951  35.759  -4.225  0.00  0.00    -0.021 NA
ATOM     42  N5  UNL     1     -44.483  35.791  -5.435  0.00  0.00    -0.021 NA
ATOM     43  N6  UNL     1     -43.664  35.209  -6.291  0.00  0.00    -0.106 NA
ENDBRANCH  36  39
ENDBRANCH  32  33
ENDBRANCH  31  32
ENDBRANCH  30  31
ENDBRANCH  29  30
ENDBRANCH  28  29
ENDBRANCH  27  28
ENDBRANCH   6  27
TORSDOF 11
ENDMDL
MODEL 6
REMARK VINA RESULT:      -4.7      3.269      5.740
REMARK  Name = ./data/4wxx_site_bc02/pdb/l1c0.pdb
REMARK  11 active torsions:
REMARK  status: ('A' for Active; 'I' for Inactive)
REMARK    1  A    between atoms: O1_2  and  C2_3
REMARK    2  A    between atoms: C5_6  and  C6_7
REMARK    3  A    between atoms: N2_9  and  C7_10
REMARK    4  A    between atoms: C22_26  and  O3_27
REMARK    5  A    between atoms: O3_27  and  C23_28
REMARK    6  A    between atoms: C23_28  and  C24_29
REMARK    7  A    between atoms: C24_29  and  C25_30
REMARK    8  A    between atoms: C25_30  and  C26_31
REMARK    9  A    between atoms: C26_31  and  O4_32
REMARK   10  A    between atoms: O4_32  and  C27_33
REMARK   11  A    between atoms: C30_36  and  C31_37
REMARK                            x       y       z     vdW  Elec       q    Type
REMARK                         _______ _______ _______ _____ _____    ______ ____
ROOT
ATOM      1  C2  UNL     1     -42.537  34.905  -3.857  0.00  0.00    +0.172 A 
ATOM      2  C3  UNL     1     -41.315  35.343  -4.391  0.00  0.00    +0.040 A 
ATOM      3  C4  UNL     1     -40.814  34.780  -5.564  0.00  0.00    +0.005 A 
ATOM      4  C5  UNL     1     -41.521  33.771  -6.242  0.00  0.00    +0.018 A 
ATOM      5  C21 UNL     1     -42.754  33.346  -5.709  0.00  0.00    +0.041 A 
ATOM      6  C22 UNL     1     -43.254  33.892  -4.509  0.00  0.00    +0.172 A 
ENDROOT
BRANCH   4   7
ATOM      7  C6  UNL     1     -40.960  33.185  -7.498  0.00  0.00    +0.079 C 
ATOM      8  N1  UNL     1     -40.310  33.963  -8.313  0.00  0.00    -0.172 NA
ATOM      9  N2  UNL     1     -39.734  33.535  -9.526  0.00  0.00    -0.222 N 
ATOM     10  C14 UNL     1     -39.584  32.255  -9.787  0.00  0.00    +0.253 C 
ATOM     11  O2  UNL     1     -38.919  31.860 -10.952  0.00  0.00    -0.271 OA
ATOM     12  C15 UNL     1     -40.055  31.209  -8.784  0.00  0.00    +0.091 C 
ATOM     13  C16 UNL     1     -40.510  29.892  -9.445  0.00  0.00    +0.035 C 
ATOM     14  C17 UNL     1     -41.680  30.161 -10.343  0.00  0.00    -0.030 C 
ATOM     15  C18 UNL     1     -42.648  30.996  -9.942  0.00  0.00    -0.030 C 
ATOM     16  C19 UNL     1     -42.636  31.619  -8.566  0.00  0.00    +0.032 C 
ATOM     17  C20 UNL     1     -41.221  31.751  -7.908  0.00  0.00    +0.056 C 
BRANCH   9  18
ATOM     18  C7  UNL     1     -39.246  34.595 -10.434  0.00  0.00    +0.108 C 
ATOM     19  C8  UNL     1     -37.766  34.350 -10.835  0.00  0.00    +0.024 C 
ATOM     20  C9  UNL     1     -36.997  35.658 -11.081  0.00  0.00    +0.002 C 
ATOM     21  C10 UNL     1     -37.298  36.299 -12.439  0.00  0.00    +0.000 C 
ATOM     22  C11 UNL     1     -38.775  36.667 -12.630  0.00  0.00    +0.000 C 
ATOM     23  C12 UNL     1     -39.652  35.430 -12.888  0.00  0.00    +0.002 C 
ATOM     24  C13 UNL     1     -40.235  34.801 -11.613  0.00  0.00    +0.024 C 
ENDBRANCH   9  18
ENDBRANCH   4   7
BRANCH   1  26
ATOM     25  C1  UNL     1     -42.759  34.992  -1.367  0.00  0.00    +0.253 C 
ATOM     26  O1  UNL     1     -43.074  35.448  -2.679  0.00  0.00    -0.468 OA
ENDBRANCH   1  26
BRANCH   6  27
ATOM     27  O3  UNL     1     -44.461  33.463  -3.930  0.00  0.00    -0.472 OA
BRANCH  27  28
ATOM     28  C23 UNL     1     -44.594  32.452  -2.931  0.00  0.00    +0.206 C 
BRANCH  28  29
ATOM     29  C24 UNL     1     -43.766  31.218  -3.299  0.00  0.00    +0.051 C 
BRANCH  29  30
ATOM     30  C25 UNL     1     -44.219  30.622  -4.636  0.00  0.00    +0.051 C 
BRANCH  30  31
ATOM     31  C26 UNL     1     -45.575  29.929  -4.507  0.00  0.00    +0.206 C 
BRANCH  31  32
ATOM     32  O4  UNL     1     -46.612  30.909  -4.534  0.00  0.00    -0.475 OA
BRANCH  32  33
ATOM     33  C27 UNL     1     -46.840  31.802  -5.589  0.00  0.00    +0.139 A 
ATOM     34  C28 UNL     1     -46.232  31.539  -6.818  0.00  0.00    +0.037 A 
ATOM     35  C29 UNL     1     -46.395  32.412  -7.895  0.00  0.00    +0.006 A 
ATOM     36  C30 UNL     1     -47.194  33.565  -7.768  0.00  0.00    +0.040 A 
ATOM     37  C32 UNL     1     -47.829  33.815  -6.535  0.00  0.00    +0.006 A 
ATOM     38  C33 UNL     1     -47.649  32.946  -5.454  0.00  0.00    +0.037 A 
BRANCH  36  39
ATOM     39  C31 UNL     1     -47.358  34.501  -8.911  0.00  0.00    +0.208 A 
ATOM     40  N3  UNL     1     -47.859  35.753  -8.831  0.00  0.00    -0.106 NA
ATOM     41  N4  UNL     1     -47.807  36.240 -10.059  0.00  0.00    -0.021 NA
ATOM     42  N5  UNL     1     -47.299  35.332 -10.874  0.00  0.00    -0.021 NA
ATOM     43  N6  UNL     1     -47.007  34.240 -10.190  0.00  0.00    -0.106 NA
ENDBRANCH  36  39
ENDBRANCH  32  33
ENDBRANCH  31  32
ENDBRANCH  30  31
ENDBRANCH  29  30
ENDBRANCH  28  29
ENDBRANCH  27  28
ENDBRANCH   6  27
TORSDOF 11
ENDMDL
MODEL 7
REMARK VINA RESULT:      -4.4      4.447      9.283
REMARK  Name = ./data/4wxx_site_bc02/pdb/l1c0.pdb
REMARK  11 active torsions:
REMARK  status: ('A' for Active; 'I' for Inactive)
REMARK    1  A    between atoms: O1_2  and  C2_3
REMARK    2  A    between atoms: C5_6  and  C6_7
REMARK    3  A    between atoms: N2_9  and  C7_10
REMARK    4  A    between atoms: C22_26  and  O3_27
REMARK    5  A    between atoms: O3_27  and  C23_28
REMARK    6  A    between atoms: C23_28  and  C24_29
REMARK    7  A    between atoms: C24_29  and  C25_30
REMARK    8  A    between atoms: C25_30  and  C26_31
REMARK    9  A    between atoms: C26_31  and  O4_32
REMARK   10  A    between atoms: O4_32  and  C27_33
REMARK   11  A    between atoms: C30_36  and  C31_37
REMARK                            x       y       z     vdW  Elec       q    Type
REMARK                         _______ _______ _______ _____ _____    ______ ____
ROOT
ATOM      1  C2  UNL     1     -30.171  32.394  -5.603  0.00  0.00    +0.172 A 
ATOM      2  C3  UNL     1     -29.759  33.489  -6.379  0.00  0.00    +0.040 A 
ATOM      3  C4  UNL     1     -30.230  33.649  -7.682  0.00  0.00    +0.005 A 
ATOM      4  C5  UNL     1     -31.130  32.726  -8.244  0.00  0.00    +0.018 A 
ATOM      5  C21 UNL     1     -31.551  31.637  -7.456  0.00  0.00    +0.041 A 
ATOM      6  C22 UNL     1     -31.059  31.455  -6.146  0.00  0.00    +0.172 A 
ENDROOT
BRANCH   4   7
ATOM      7  C6  UNL     1     -31.618  32.922  -9.644  0.00  0.00    +0.079 C 
ATOM      8  N1  UNL     1     -32.842  33.320  -9.827  0.00  0.00    -0.172 NA
ATOM      9  N2  UNL     1     -33.423  33.541 -11.093  0.00  0.00    -0.222 N 
ATOM     10  C14 UNL     1     -32.677  33.618 -12.172  0.00  0.00    +0.253 C 
ATOM     11  O2  UNL     1     -33.266  33.938 -13.400  0.00  0.00    -0.271 OA
ATOM     12  C15 UNL     1     -31.166  33.445 -12.072  0.00  0.00    +0.091 C 
ATOM     13  C16 UNL     1     -30.538  32.829 -13.340  0.00  0.00    +0.035 C 
ATOM     14  C17 UNL     1     -31.098  31.457 -13.561  0.00  0.00    -0.030 C 
ATOM     15  C18 UNL     1     -31.272  30.634 -12.519  0.00  0.00    -0.030 C 
ATOM     16  C19 UNL     1     -30.841  31.022 -11.123  0.00  0.00    +0.032 C 
ATOM     17  C20 UNL     1     -30.777  32.563 -10.851  0.00  0.00    +0.056 C 
BRANCH   9  18
ATOM     18  C7  UNL     1     -34.885  33.757 -11.119  0.00  0.00    +0.108 C 
ATOM     19  C8  UNL     1     -35.642  32.425 -11.371  0.00  0.00    +0.024 C 
ATOM     20  C9  UNL     1     -36.956  32.630 -12.142  0.00  0.00    +0.002 C 
ATOM     21  C10 UNL     1     -38.101  33.158 -11.272  0.00  0.00    +0.000 C 
ATOM     22  C11 UNL     1     -37.804  34.519 -10.628  0.00  0.00    +0.000 C 
ATOM     23  C12 UNL     1     -36.812  34.403  -9.458  0.00  0.00    +0.002 C 
ATOM     24  C13 UNL     1     -35.339  34.561  -9.870  0.00  0.00    +0.024 C 
ENDBRANCH   9  18
ENDBRANCH   4   7
BRANCH   1  26
ATOM     25  C1  UNL     1     -29.715  33.208  -3.282  0.00  0.00    +0.253 C 
ATOM     26  O1  UNL     1     -29.719  32.200  -4.288  0.00  0.00    -0.468 OA
ENDBRANCH   1  26
BRANCH   6  27
ATOM     27  O3  UNL     1     -31.428  30.358  -5.348  0.00  0.00    -0.472 OA
BRANCH  27  28
ATOM     28  C23 UNL     1     -32.625  30.251  -4.579  0.00  0.00    +0.206 C 
BRANCH  28  29
ATOM     29  C24 UNL     1     -33.856  30.299  -5.489  0.00  0.00    +0.051 C 
BRANCH  29  30
ATOM     30  C25 UNL     1     -34.748  31.501  -5.156  0.00  0.00    +0.051 C 
BRANCH  30  31
ATOM     31  C26 UNL     1     -35.155  32.260  -6.418  0.00  0.00    +0.206 C 
BRANCH  31  32
ATOM     32  O4  UNL     1     -36.131  33.246  -6.083  0.00  0.00    -0.475 OA
BRANCH  32  33
ATOM     33  C27 UNL     1     -37.494  33.161  -6.398  0.00  0.00    +0.139 A 
ATOM     34  C28 UNL     1     -37.961  31.986  -6.991  0.00  0.00    +0.037 A 
ATOM     35  C29 UNL     1     -39.301  31.856  -7.358  0.00  0.00    +0.006 A 
ATOM     36  C30 UNL     1     -40.214  32.902  -7.118  0.00  0.00    +0.040 A 
ATOM     37  C32 UNL     1     -39.747  34.077  -6.496  0.00  0.00    +0.006 A 
ATOM     38  C33 UNL     1     -38.399  34.208  -6.144  0.00  0.00    +0.037 A 
BRANCH  36  39
ATOM     39  C31 UNL     1     -41.638  32.770  -7.520  0.00  0.00    +0.208 A 
ATOM     40  N3  UNL     1     -42.657  33.522  -7.050  0.00  0.00    -0.106 NA
ATOM     41  N4  UNL     1     -43.738  33.096  -7.679  0.00  0.00    -0.021 NA
ATOM     42  N5  UNL     1     -43.413  32.117  -8.506  0.00  0.00    -0.021 NA
ATOM     43  N6  UNL     1     -42.114  31.893  -8.433  0.00  0.00    -0.106 NA
ENDBRANCH  36  39
ENDBRANCH  32  33
ENDBRANCH  31  32
ENDBRANCH  30  31
ENDBRANCH  29  30
ENDBRANCH  28  29
ENDBRANCH  27  28
ENDBRANCH   6  27
TORSDOF 11
ENDMDL
MODEL 8
REMARK VINA RESULT:      -4.0      4.712      9.299
REMARK  Name = ./data/4wxx_site_bc02/pdb/l1c0.pdb
REMARK  11 active torsions:
REMARK  status: ('A' for Active; 'I' for Inactive)
REMARK    1  A    between atoms: O1_2  and  C2_3
REMARK    2  A    between atoms: C5_6  and  C6_7
REMARK    3  A    between atoms: N2_9  and  C7_10
REMARK    4  A    between atoms: C22_26  and  O3_27
REMARK    5  A    between atoms: O3_27  and  C23_28
REMARK    6  A    between atoms: C23_28  and  C24_29
REMARK    7  A    between atoms: C24_29  and  C25_30
REMARK    8  A    between atoms: C25_30  and  C26_31
REMARK    9  A    between atoms: C26_31  and  O4_32
REMARK   10  A    between atoms: O4_32  and  C27_33
REMARK   11  A    between atoms: C30_36  and  C31_37
REMARK                            x       y       z     vdW  Elec       q    Type
REMARK                         _______ _______ _______ _____ _____    ______ ____
ROOT
ATOM      1  C2  UNL     1     -30.275  32.297  -5.620  0.00  0.00    +0.172 A 
ATOM      2  C3  UNL     1     -29.750  33.404  -6.307  0.00  0.00    +0.040 A 
ATOM      3  C4  UNL     1     -30.049  33.607  -7.654  0.00  0.00    +0.005 A 
ATOM      4  C5  UNL     1     -30.884  32.717  -8.351  0.00  0.00    +0.018 A 
ATOM      5  C21 UNL     1     -31.419  31.616  -7.654  0.00  0.00    +0.041 A 
ATOM      6  C22 UNL     1     -31.101  31.390  -6.299  0.00  0.00    +0.172 A 
ENDROOT
BRANCH   4   7
ATOM      7  C6  UNL     1     -31.187  32.958  -9.796  0.00  0.00    +0.079 C 
ATOM      8  N1  UNL     1     -32.294  33.566 -10.108  0.00  0.00    -0.172 NA
ATOM      9  N2  UNL     1     -32.695  33.854 -11.428  0.00  0.00    -0.222 N 
ATOM     10  C14 UNL     1     -31.845  33.763 -12.426  0.00  0.00    +0.253 C 
ATOM     11  O2  UNL     1     -32.241  34.151 -13.710  0.00  0.00    -0.271 OA
ATOM     12  C15 UNL     1     -30.408  33.322 -12.170  0.00  0.00    +0.091 C 
ATOM     13  C16 UNL     1     -29.781  32.568 -13.361  0.00  0.00    +0.035 C 
ATOM     14  C17 UNL     1     -30.559  31.314 -13.624  0.00  0.00    -0.030 C 
ATOM     15  C18 UNL     1     -30.983  30.566 -12.598  0.00  0.00    -0.030 C 
ATOM     16  C19 UNL     1     -30.628  30.909 -11.169  0.00  0.00    +0.032 C 
ATOM     17  C20 UNL     1     -30.311  32.420 -10.907  0.00  0.00    +0.056 C 
BRANCH   9  18
ATOM     18  C7  UNL     1     -34.084  34.330 -11.606  0.00  0.00    +0.108 C 
ATOM     19  C8  UNL     1     -34.906  33.342 -12.475  0.00  0.00    +0.024 C 
ATOM     20  C9  UNL     1     -35.988  34.049 -13.309  0.00  0.00    +0.002 C 
ATOM     21  C10 UNL     1     -37.232  34.431 -12.501  0.00  0.00    +0.000 C 
ATOM     22  C11 UNL     1     -36.938  35.389 -11.339  0.00  0.00    +0.000 C 
ATOM     23  C12 UNL     1     -36.247  34.681 -10.162  0.00  0.00    +0.002 C 
ATOM     24  C13 UNL     1     -34.712  34.701 -10.235  0.00  0.00    +0.024 C 
ENDBRANCH   9  18
ENDBRANCH   4   7
BRANCH   1  26
ATOM     25  C1  UNL     1     -29.726  33.081  -3.310  0.00  0.00    +0.253 C 
ATOM     26  O1  UNL     1     -29.997  32.061  -4.265  0.00  0.00    -0.468 OA
ENDBRANCH   1  26
BRANCH   6  27
ATOM     27  O3  UNL     1     -31.585  30.280  -5.585  0.00  0.00    -0.472 OA
BRANCH  27  28
ATOM     28  C23 UNL     1     -32.733  30.270  -4.737  0.00  0.00    +0.206 C 
BRANCH  28  29
ATOM     29  C24 UNL     1     -33.929  30.918  -5.440  0.00  0.00    +0.051 C 
BRANCH  29  30
ATOM     30  C25 UNL     1     -34.196  30.263  -6.800  0.00  0.00    +0.051 C 
BRANCH  30  31
ATOM     31  C26 UNL     1     -35.677  30.334  -7.172  0.00  0.00    +0.206 C 
BRANCH  31  32
ATOM     32  O4  UNL     1     -35.973  31.629  -7.691  0.00  0.00    -0.475 OA
BRANCH  32  33
ATOM     33  C27 UNL     1     -36.883  32.530  -7.122  0.00  0.00    +0.139 A 
ATOM     34  C28 UNL     1     -38.247  32.261  -7.253  0.00  0.00    +0.037 A 
ATOM     35  C29 UNL     1     -39.199  33.140  -6.735  0.00  0.00    +0.006 A 
ATOM     36  C30 UNL     1     -38.802  34.307  -6.054  0.00  0.00    +0.040 A 
ATOM     37  C32 UNL     1     -37.425  34.564  -5.899  0.00  0.00    +0.006 A 
ATOM     38  C33 UNL     1     -36.474  33.688  -6.434  0.00  0.00    +0.037 A 
BRANCH  36  39
ATOM     39  C31 UNL     1     -39.816  35.250  -5.514  0.00  0.00    +0.208 A 
ATOM     40  N3  UNL     1     -39.546  36.378  -4.823  0.00  0.00    -0.106 NA
ATOM     41  N4  UNL     1     -40.719  36.926  -4.556  0.00  0.00    -0.021 NA
ATOM     42  N5  UNL     1     -41.683  36.171  -5.054  0.00  0.00    -0.021 NA
ATOM     43  N6  UNL     1     -41.155  35.123  -5.659  0.00  0.00    -0.106 NA
ENDBRANCH  36  39
ENDBRANCH  32  33
ENDBRANCH  31  32
ENDBRANCH  30  31
ENDBRANCH  29  30
ENDBRANCH  28  29
ENDBRANCH  27  28
ENDBRANCH   6  27
TORSDOF 11
ENDMDL
