MODEL 1
REMARK VINA RESULT:      -1.6      0.000      0.000
REMARK  Name = ./data/4wxx_site_bc02/pdb/l1c0.pdb
REMARK  11 active torsions:
REMARK  status: ('A' for Active; 'I' for Inactive)
REMARK    1  A    between atoms: O1_2  and  C2_3
REMARK    2  A    between atoms: C5_6  and  C6_7
REMARK    3  A    between atoms: N2_9  and  C7_10
REMARK    4  A    between atoms: C22_26  and  O3_27
REMARK    5  A    between atoms: O3_27  and  C23_28
REMARK    6  A    between atoms: C23_28  and  C24_29
REMARK    7  A    between atoms: C24_29  and  C25_30
REMARK    8  A    between atoms: C25_30  and  C26_31
REMARK    9  A    between atoms: C26_31  and  O4_32
REMARK   10  A    between atoms: O4_32  and  C27_33
REMARK   11  A    between atoms: C30_36  and  C31_37
REMARK                            x       y       z     vdW  Elec       q    Type
REMARK                         _______ _______ _______ _____ _____    ______ ____
ROOT
ATOM      1  C2  UNL     1     -82.476  50.222   8.653  0.00  0.00    +0.172 A 
ATOM      2  C3  UNL     1     -83.020  49.889   9.903  0.00  0.00    +0.040 A 
ATOM      3  C4  UNL     1     -84.264  50.390  10.289  0.00  0.00    +0.005 A 
ATOM      4  C5  UNL     1     -85.001  51.230   9.435  0.00  0.00    +0.018 A 
ATOM      5  C21 UNL     1     -84.456  51.549   8.176  0.00  0.00    +0.041 A 
ATOM      6  C22 UNL     1     -83.188  51.067   7.790  0.00  0.00    +0.172 A 
ENDROOT
BRANCH   4   7
ATOM      7  C6  UNL     1     -86.332  51.753   9.875  0.00  0.00    +0.079 C 
ATOM      8  N1  UNL     1     -86.908  51.205  10.903  0.00  0.00    -0.172 NA
ATOM      9  N2  UNL     1     -88.159  51.604  11.417  0.00  0.00    -0.222 N 
ATOM     10  C14 UNL     1     -88.706  52.741  11.050  0.00  0.00    +0.253 C 
ATOM     11  O2  UNL     1     -89.898  53.161  11.649  0.00  0.00    -0.271 OA
ATOM     12  C15 UNL     1     -88.001  53.640  10.041  0.00  0.00    +0.091 C 
ATOM     13  C16 UNL     1     -88.975  54.466   9.176  0.00  0.00    +0.035 C 
ATOM     14  C17 UNL     1     -89.839  53.541   8.373  0.00  0.00    -0.030 C 
ATOM     15  C18 UNL     1     -89.301  52.457   7.800  0.00  0.00    -0.030 C 
ATOM     16  C19 UNL     1     -87.817  52.179   7.872  0.00  0.00    +0.032 C 
ATOM     17  C20 UNL     1     -87.080  52.816   9.097  0.00  0.00    +0.056 C 
BRANCH   9  18
ATOM     18  C7  UNL     1     -88.767  50.718  12.433  0.00  0.00    +0.108 C 
ATOM     19  C8  UNL     1     -88.153  49.294  12.371  0.00  0.00    +0.024 C 
ATOM     20  C9  UNL     1     -89.157  48.201  12.773  0.00  0.00    +0.002 C 
ATOM     21  C10 UNL     1     -89.365  48.086  14.286  0.00  0.00    +0.000 C 
ATOM     22  C11 UNL     1     -89.900  49.371  14.931  0.00  0.00    +0.000 C 
ATOM     23  C12 UNL     1     -88.818  50.458  15.043  0.00  0.00    +0.002 C 
ATOM     24  C13 UNL     1     -88.748  51.398  13.829  0.00  0.00    +0.024 C 
ENDBRANCH   9  18
ENDBRANCH   4   7
BRANCH   1  26
ATOM     25  C1  UNL     1     -80.277  49.112   9.085  0.00  0.00    +0.253 C 
ATOM     26  O1  UNL     1     -81.228  49.737   8.230  0.00  0.00    -0.468 OA
ENDBRANCH   1  26
BRANCH   6  27
ATOM     27  O3  UNL     1     -82.598  51.399   6.558  0.00  0.00    -0.472 OA
BRANCH  27  28
ATOM     28  C23 UNL     1     -82.044  50.474   5.623  0.00  0.00    +0.206 C 
BRANCH  28  29
ATOM     29  C24 UNL     1     -82.048  51.068   4.211  0.00  0.00    +0.051 C 
BRANCH  29  30
ATOM     30  C25 UNL     1     -82.072  49.967   3.144  0.00  0.00    +0.051 C 
BRANCH  30  31
ATOM     31  C26 UNL     1     -83.473  49.784   2.563  0.00  0.00    +0.206 C 
BRANCH  31  32
ATOM     32  O4  UNL     1     -83.426  49.963   1.148  0.00  0.00    -0.475 OA
BRANCH  32  33
ATOM     33  C27 UNL     1     -84.442  50.550   0.382  0.00  0.00    +0.139 A 
ATOM     34  C28 UNL     1     -84.374  50.426  -1.007  0.00  0.00    +0.037 A 
ATOM     35  C29 UNL     1     -85.339  51.018  -1.823  0.00  0.00    +0.006 A 
ATOM     36  C30 UNL     1     -86.412  51.735  -1.260  0.00  0.00    +0.040 A 
ATOM     37  C32 UNL     1     -86.494  51.836   0.143  0.00  0.00    +0.006 A 
ATOM     38  C33 UNL     1     -85.515  51.255   0.957  0.00  0.00    +0.037 A 
BRANCH  36  39
ATOM     39  C31 UNL     1     -87.433  52.376  -2.129  0.00  0.00    +0.208 A 
ATOM     40  N3  UNL     1     -87.325  52.552  -3.464  0.00  0.00    -0.106 NA
ATOM     41  N4  UNL     1     -88.450  53.133  -3.842  0.00  0.00    -0.021 NA
ATOM     42  N5  UNL     1     -89.228  53.318  -2.790  0.00  0.00    -0.021 NA
ATOM     43  N6  UNL     1     -88.626  52.855  -1.710  0.00  0.00    -0.106 NA
ENDBRANCH  36  39
ENDBRANCH  32  33
ENDBRANCH  31  32
ENDBRANCH  30  31
ENDBRANCH  29  30
ENDBRANCH  28  29
ENDBRANCH  27  28
ENDBRANCH   6  27
TORSDOF 11
ENDMDL
