MODEL 1
REMARK VINA RESULT:      -9.8      0.000      0.000
REMARK  Name = ./data/4wxx_site_bc02/pdb/l1c0.pdb
REMARK  11 active torsions:
REMARK  status: ('A' for Active; 'I' for Inactive)
REMARK    1  A    between atoms: O1_2  and  C2_3
REMARK    2  A    between atoms: C5_6  and  C6_7
REMARK    3  A    between atoms: N2_9  and  C7_10
REMARK    4  A    between atoms: C22_26  and  O3_27
REMARK    5  A    between atoms: O3_27  and  C23_28
REMARK    6  A    between atoms: C23_28  and  C24_29
REMARK    7  A    between atoms: C24_29  and  C25_30
REMARK    8  A    between atoms: C25_30  and  C26_31
REMARK    9  A    between atoms: C26_31  and  O4_32
REMARK   10  A    between atoms: O4_32  and  C27_33
REMARK   11  A    between atoms: C30_36  and  C31_37
REMARK                            x       y       z     vdW  Elec       q    Type
REMARK                         _______ _______ _______ _____ _____    ______ ____
ROOT
ATOM      1  C2  UNL     1     -51.598  61.867   8.032  0.00  0.00    +0.172 A 
ATOM      2  C3  UNL     1     -50.441  61.764   8.822  0.00  0.00    +0.040 A 
ATOM      3  C4  UNL     1     -49.525  60.736   8.602  0.00  0.00    +0.005 A 
ATOM      4  C5  UNL     1     -49.731  59.788   7.585  0.00  0.00    +0.018 A 
ATOM      5  C21 UNL     1     -50.886  59.904   6.786  0.00  0.00    +0.041 A 
ATOM      6  C22 UNL     1     -51.830  60.926   7.019  0.00  0.00    +0.172 A 
ENDROOT
BRANCH   4   7
ATOM      7  C6  UNL     1     -48.732  58.696   7.372  0.00  0.00    +0.079 C 
ATOM      8  N1  UNL     1     -49.059  57.690   6.616  0.00  0.00    -0.172 NA
ATOM      9  N2  UNL     1     -48.210  56.599   6.336  0.00  0.00    -0.222 N 
ATOM     10  C14 UNL     1     -46.926  56.658   6.609  0.00  0.00    +0.253 C 
ATOM     11  O2  UNL     1     -46.089  55.603   6.230  0.00  0.00    -0.271 OA
ATOM     12  C15 UNL     1     -46.337  57.906   7.256  0.00  0.00    +0.091 C 
ATOM     13  C16 UNL     1     -45.121  57.608   8.158  0.00  0.00    +0.035 C 
ATOM     14  C17 UNL     1     -45.542  56.717   9.287  0.00  0.00    -0.030 C 
ATOM     15  C18 UNL     1     -46.709  56.934   9.906  0.00  0.00    -0.030 C 
ATOM     16  C19 UNL     1     -47.586  58.112   9.551  0.00  0.00    +0.032 C 
ATOM     17  C20 UNL     1     -47.403  58.663   8.097  0.00  0.00    +0.056 C 
BRANCH   9  18
ATOM     18  C7  UNL     1     -48.829  55.440   5.659  0.00  0.00    +0.108 C 
ATOM     19  C8  UNL     1     -50.323  55.294   6.054  0.00  0.00    +0.024 C 
ATOM     20  C9  UNL     1     -50.792  53.830   6.057  0.00  0.00    +0.002 C 
ATOM     21  C10 UNL     1     -51.070  53.273   4.657  0.00  0.00    +0.000 C 
ATOM     22  C11 UNL     1     -49.845  53.295   3.734  0.00  0.00    +0.000 C 
ATOM     23  C12 UNL     1     -49.519  54.712   3.234  0.00  0.00    +0.002 C 
ATOM     24  C13 UNL     1     -48.540  55.482   4.133  0.00  0.00    +0.024 C 
ENDBRANCH   9  18
ENDBRANCH   4   7
BRANCH   1  26
ATOM     25  C1  UNL     1     -53.628  62.817   9.141  0.00  0.00    +0.253 C 
ATOM     26  O1  UNL     1     -52.542  62.888   8.222  0.00  0.00    -0.468 OA
ENDBRANCH   1  26
BRANCH   6  27
ATOM     27  O3  UNL     1     -53.011  61.047   6.267  0.00  0.00    -0.472 OA
BRANCH  27  28
ATOM     28  C23 UNL     1     -53.119  60.891   4.852  0.00  0.00    +0.206 C 
BRANCH  28  29
ATOM     29  C24 UNL     1     -54.222  61.793   4.292  0.00  0.00    +0.051 C 
BRANCH  29  30
ATOM     30  C25 UNL     1     -54.083  61.967   2.775  0.00  0.00    +0.051 C 
BRANCH  30  31
ATOM     31  C26 UNL     1     -53.091  63.077   2.430  0.00  0.00    +0.206 C 
BRANCH  31  32
ATOM     32  O4  UNL     1     -52.734  63.779   3.620  0.00  0.00    -0.475 OA
BRANCH  32  33
ATOM     33  C27 UNL     1     -51.454  64.277   3.900  0.00  0.00    +0.139 A 
ATOM     34  C28 UNL     1     -50.857  63.914   5.109  0.00  0.00    +0.037 A 
ATOM     35  C29 UNL     1     -49.598  64.407   5.458  0.00  0.00    +0.006 A 
ATOM     36  C30 UNL     1     -48.898  65.265   4.588  0.00  0.00    +0.040 A 
ATOM     37  C32 UNL     1     -49.492  65.609   3.357  0.00  0.00    +0.006 A 
ATOM     38  C33 UNL     1     -50.760  65.126   3.019  0.00  0.00    +0.037 A 
BRANCH  36  39
ATOM     39  C31 UNL     1     -47.564  65.800   4.964  0.00  0.00    +0.208 A 
ATOM     40  N3  UNL     1     -46.934  66.829   4.357  0.00  0.00    -0.106 NA
ATOM     41  N4  UNL     1     -45.798  66.992   5.013  0.00  0.00    -0.021 NA
ATOM     42  N5  UNL     1     -45.717  66.101   5.986  0.00  0.00    -0.021 NA
ATOM     43  N6  UNL     1     -46.801  65.347   5.984  0.00  0.00    -0.106 NA
ENDBRANCH  36  39
ENDBRANCH  32  33
ENDBRANCH  31  32
ENDBRANCH  30  31
ENDBRANCH  29  30
ENDBRANCH  28  29
ENDBRANCH  27  28
ENDBRANCH   6  27
TORSDOF 11
ENDMDL
MODEL 2
REMARK VINA RESULT:      -9.1      2.009      2.763
REMARK  Name = ./data/4wxx_site_bc02/pdb/l1c0.pdb
REMARK  11 active torsions:
REMARK  status: ('A' for Active; 'I' for Inactive)
REMARK    1  A    between atoms: O1_2  and  C2_3
REMARK    2  A    between atoms: C5_6  and  C6_7
REMARK    3  A    between atoms: N2_9  and  C7_10
REMARK    4  A    between atoms: C22_26  and  O3_27
REMARK    5  A    between atoms: O3_27  and  C23_28
REMARK    6  A    between atoms: C23_28  and  C24_29
REMARK    7  A    between atoms: C24_29  and  C25_30
REMARK    8  A    between atoms: C25_30  and  C26_31
REMARK    9  A    between atoms: C26_31  and  O4_32
REMARK   10  A    between atoms: O4_32  and  C27_33
REMARK   11  A    between atoms: C30_36  and  C31_37
REMARK                            x       y       z     vdW  Elec       q    Type
REMARK                         _______ _______ _______ _____ _____    ______ ____
ROOT
ATOM      1  C2  UNL     1     -52.850  64.402   6.696  0.00  0.00    +0.172 A 
ATOM      2  C3  UNL     1     -51.689  64.190   7.459  0.00  0.00    +0.040 A 
ATOM      3  C4  UNL     1     -50.987  62.989   7.358  0.00  0.00    +0.005 A 
ATOM      4  C5  UNL     1     -51.417  61.970   6.490  0.00  0.00    +0.018 A 
ATOM      5  C21 UNL     1     -52.574  62.194   5.717  0.00  0.00    +0.041 A 
ATOM      6  C22 UNL     1     -53.304  63.395   5.832  0.00  0.00    +0.172 A 
ENDROOT
BRANCH   4   7
ATOM      7  C6  UNL     1     -50.645  60.693   6.403  0.00  0.00    +0.079 C 
ATOM      8  N1  UNL     1     -51.240  59.635   5.936  0.00  0.00    -0.172 NA
ATOM      9  N2  UNL     1     -50.625  58.373   5.803  0.00  0.00    -0.222 N 
ATOM     10  C14 UNL     1     -49.320  58.247   5.893  0.00  0.00    +0.253 C 
ATOM     11  O2  UNL     1     -48.728  57.002   5.657  0.00  0.00    -0.271 OA
ATOM     12  C15 UNL     1     -48.450  59.468   6.166  0.00  0.00    +0.091 C 
ATOM     13  C16 UNL     1     -47.165  59.136   6.953  0.00  0.00    +0.035 C 
ATOM     14  C17 UNL     1     -47.530  58.579   8.295  0.00  0.00    -0.030 C 
ATOM     15  C18 UNL     1     -48.534  59.126   8.992  0.00  0.00    -0.030 C 
ATOM     16  C19 UNL     1     -49.266  60.351   8.496  0.00  0.00    +0.032 C 
ATOM     17  C20 UNL     1     -49.237  60.560   6.944  0.00  0.00    +0.056 C 
BRANCH   9  18
ATOM     18  C7  UNL     1     -51.516  57.237   5.483  0.00  0.00    +0.108 C 
ATOM     19  C8  UNL     1     -53.006  57.671   5.506  0.00  0.00    +0.024 C 
ATOM     20  C9  UNL     1     -53.945  56.536   5.945  0.00  0.00    +0.002 C 
ATOM     21  C10 UNL     1     -54.223  55.510   4.842  0.00  0.00    +0.000 C 
ATOM     22  C11 UNL     1     -52.961  54.804   4.329  0.00  0.00    +0.000 C 
ATOM     23  C12 UNL     1     -52.111  55.716   3.429  0.00  0.00    +0.002 C 
ATOM     24  C13 UNL     1     -51.045  56.524   4.186  0.00  0.00    +0.024 C 
ENDBRANCH   9  18
ENDBRANCH   4   7
BRANCH   1  26
ATOM     25  C1  UNL     1     -53.367  66.613   7.744  0.00  0.00    +0.253 C 
ATOM     26  O1  UNL     1     -53.582  65.597   6.770  0.00  0.00    -0.468 OA
ENDBRANCH   1  26
BRANCH   6  27
ATOM     27  O3  UNL     1     -54.482  63.634   5.106  0.00  0.00    -0.472 OA
BRANCH  27  28
ATOM     28  C23 UNL     1     -54.902  62.926   3.940  0.00  0.00    +0.206 C 
BRANCH  28  29
ATOM     29  C24 UNL     1     -54.462  63.664   2.673  0.00  0.00    +0.051 C 
BRANCH  29  30
ATOM     30  C25 UNL     1     -53.403  62.866   1.903  0.00  0.00    +0.051 C 
BRANCH  30  31
ATOM     31  C26 UNL     1     -52.484  63.787   1.101  0.00  0.00    +0.206 C 
BRANCH  31  32
ATOM     32  O4  UNL     1     -52.232  64.975   1.852  0.00  0.00    -0.475 OA
BRANCH  32  33
ATOM     33  C27 UNL     1     -51.067  65.222   2.590  0.00  0.00    +0.139 A 
ATOM     34  C28 UNL     1     -50.259  66.293   2.205  0.00  0.00    +0.037 A 
ATOM     35  C29 UNL     1     -49.069  66.567   2.883  0.00  0.00    +0.006 A 
ATOM     36  C30 UNL     1     -48.671  65.779   3.980  0.00  0.00    +0.040 A 
ATOM     37  C32 UNL     1     -49.502  64.714   4.383  0.00  0.00    +0.006 A 
ATOM     38  C33 UNL     1     -50.685  64.434   3.691  0.00  0.00    +0.037 A 
BRANCH  36  39
ATOM     39  C31 UNL     1     -47.399  66.062   4.692  0.00  0.00    +0.208 A 
ATOM     40  N3  UNL     1     -46.541  67.062   4.395  0.00  0.00    -0.106 NA
ATOM     41  N4  UNL     1     -45.562  66.971   5.278  0.00  0.00    -0.021 NA
ATOM     42  N5  UNL     1     -45.793  65.955   6.091  0.00  0.00    -0.021 NA
ATOM     43  N6  UNL     1     -46.928  65.371   5.755  0.00  0.00    -0.106 NA
ENDBRANCH  36  39
ENDBRANCH  32  33
ENDBRANCH  31  32
ENDBRANCH  30  31
ENDBRANCH  29  30
ENDBRANCH  28  29
ENDBRANCH  27  28
ENDBRANCH   6  27
TORSDOF 11
ENDMDL
MODEL 3
REMARK VINA RESULT:      -7.8      1.290      3.974
REMARK  Name = ./data/4wxx_site_bc02/pdb/l1c0.pdb
REMARK  11 active torsions:
REMARK  status: ('A' for Active; 'I' for Inactive)
REMARK    1  A    between atoms: O1_2  and  C2_3
REMARK    2  A    between atoms: C5_6  and  C6_7
REMARK    3  A    between atoms: N2_9  and  C7_10
REMARK    4  A    between atoms: C22_26  and  O3_27
REMARK    5  A    between atoms: O3_27  and  C23_28
REMARK    6  A    between atoms: C23_28  and  C24_29
REMARK    7  A    between atoms: C24_29  and  C25_30
REMARK    8  A    between atoms: C25_30  and  C26_31
REMARK    9  A    between atoms: C26_31  and  O4_32
REMARK   10  A    between atoms: O4_32  and  C27_33
REMARK   11  A    between atoms: C30_36  and  C31_37
REMARK                            x       y       z     vdW  Elec       q    Type
REMARK                         _______ _______ _______ _____ _____    ______ ____
ROOT
ATOM      1  C2  UNL     1     -51.149  60.890   6.954  0.00  0.00    +0.172 A 
ATOM      2  C3  UNL     1     -50.125  60.436   7.800  0.00  0.00    +0.040 A 
ATOM      3  C4  UNL     1     -49.485  59.222   7.547  0.00  0.00    +0.005 A 
ATOM      4  C5  UNL     1     -49.844  58.432   6.440  0.00  0.00    +0.018 A 
ATOM      5  C21 UNL     1     -50.863  58.900   5.587  0.00  0.00    +0.041 A 
ATOM      6  C22 UNL     1     -51.531  60.114   5.851  0.00  0.00    +0.172 A 
ENDROOT
BRANCH   4   7
ATOM      7  C6  UNL     1     -49.142  57.135   6.194  0.00  0.00    +0.079 C 
ATOM      8  N1  UNL     1     -48.016  56.910   6.803  0.00  0.00    -0.172 NA
ATOM      9  N2  UNL     1     -47.257  55.731   6.657  0.00  0.00    -0.222 N 
ATOM     10  C14 UNL     1     -47.776  54.661   6.097  0.00  0.00    +0.253 C 
ATOM     11  O2  UNL     1     -47.037  53.474   6.055  0.00  0.00    -0.271 OA
ATOM     12  C15 UNL     1     -49.207  54.688   5.575  0.00  0.00    +0.091 C 
ATOM     13  C16 UNL     1     -49.432  53.758   4.365  0.00  0.00    +0.035 C 
ATOM     14  C17 UNL     1     -48.567  54.201   3.225  0.00  0.00    -0.030 C 
ATOM     15  C18 UNL     1     -48.434  55.507   2.959  0.00  0.00    -0.030 C 
ATOM     16  C19 UNL     1     -49.202  56.554   3.732  0.00  0.00    +0.032 C 
ATOM     17  C20 UNL     1     -49.636  56.129   5.176  0.00  0.00    +0.056 C 
BRANCH   9  18
ATOM     18  C7  UNL     1     -45.895  55.748   7.233  0.00  0.00    +0.108 C 
ATOM     19  C8  UNL     1     -44.913  56.531   6.321  0.00  0.00    +0.024 C 
ATOM     20  C9  UNL     1     -43.478  55.983   6.393  0.00  0.00    +0.002 C 
ATOM     21  C10 UNL     1     -42.718  56.420   7.649  0.00  0.00    +0.000 C 
ATOM     22  C11 UNL     1     -43.381  55.966   8.956  0.00  0.00    +0.000 C 
ATOM     23  C12 UNL     1     -44.637  56.789   9.287  0.00  0.00    +0.002 C 
ATOM     24  C13 UNL     1     -45.938  56.200   8.718  0.00  0.00    +0.024 C 
ENDBRANCH   9  18
ENDBRANCH   4   7
BRANCH   1  26
ATOM     25  C1  UNL     1     -51.280  63.190   7.929  0.00  0.00    +0.253 C 
ATOM     26  O1  UNL     1     -51.815  62.106   7.176  0.00  0.00    -0.468 OA
ENDBRANCH   1  26
BRANCH   6  27
ATOM     27  O3  UNL     1     -52.578  60.589   5.042  0.00  0.00    -0.472 OA
BRANCH  27  28
ATOM     28  C23 UNL     1     -53.964  60.579   5.380  0.00  0.00    +0.206 C 
BRANCH  28  29
ATOM     29  C24 UNL     1     -54.645  61.866   4.906  0.00  0.00    +0.051 C 
BRANCH  29  30
ATOM     30  C25 UNL     1     -54.167  62.264   3.504  0.00  0.00    +0.051 C 
BRANCH  30  31
ATOM     31  C26 UNL     1     -53.588  63.678   3.493  0.00  0.00    +0.206 C 
BRANCH  31  32
ATOM     32  O4  UNL     1     -52.323  63.666   2.831  0.00  0.00    -0.475 OA
BRANCH  32  33
ATOM     33  C27 UNL     1     -51.135  64.181   3.367  0.00  0.00    +0.139 A 
ATOM     34  C28 UNL     1     -50.656  65.392   2.863  0.00  0.00    +0.037 A 
ATOM     35  C29 UNL     1     -49.460  65.936   3.334  0.00  0.00    +0.006 A 
ATOM     36  C30 UNL     1     -48.724  65.284   4.342  0.00  0.00    +0.040 A 
ATOM     37  C32 UNL     1     -49.223  64.075   4.868  0.00  0.00    +0.006 A 
ATOM     38  C33 UNL     1     -50.414  63.526   4.381  0.00  0.00    +0.037 A 
BRANCH  36  39
ATOM     39  C31 UNL     1     -47.444  65.856   4.835  0.00  0.00    +0.208 A 
ATOM     40  N3  UNL     1     -46.792  65.467   5.952  0.00  0.00    -0.106 NA
ATOM     41  N4  UNL     1     -45.699  66.209   6.006  0.00  0.00    -0.021 NA
ATOM     42  N5  UNL     1     -45.669  67.029   4.970  0.00  0.00    -0.021 NA
ATOM     43  N6  UNL     1     -46.738  66.833   4.221  0.00  0.00    -0.106 NA
ENDBRANCH  36  39
ENDBRANCH  32  33
ENDBRANCH  31  32
ENDBRANCH  30  31
ENDBRANCH  29  30
ENDBRANCH  28  29
ENDBRANCH  27  28
ENDBRANCH   6  27
TORSDOF 11
ENDMDL
MODEL 4
REMARK VINA RESULT:      -7.8      3.274      9.984
REMARK  Name = ./data/4wxx_site_bc02/pdb/l1c0.pdb
REMARK  11 active torsions:
REMARK  status: ('A' for Active; 'I' for Inactive)
REMARK    1  A    between atoms: O1_2  and  C2_3
REMARK    2  A    between atoms: C5_6  and  C6_7
REMARK    3  A    between atoms: N2_9  and  C7_10
REMARK    4  A    between atoms: C22_26  and  O3_27
REMARK    5  A    between atoms: O3_27  and  C23_28
REMARK    6  A    between atoms: C23_28  and  C24_29
REMARK    7  A    between atoms: C24_29  and  C25_30
REMARK    8  A    between atoms: C25_30  and  C26_31
REMARK    9  A    between atoms: C26_31  and  O4_32
REMARK   10  A    between atoms: O4_32  and  C27_33
REMARK   11  A    between atoms: C30_36  and  C31_37
REMARK                            x       y       z     vdW  Elec       q    Type
REMARK                         _______ _______ _______ _____ _____    ______ ____
ROOT
ATOM      1  C2  UNL     1     -48.708  60.834   6.435  0.00  0.00    +0.172 A 
ATOM      2  C3  UNL     1     -48.378  62.170   6.151  0.00  0.00    +0.040 A 
ATOM      3  C4  UNL     1     -49.375  63.090   5.825  0.00  0.00    +0.005 A 
ATOM      4  C5  UNL     1     -50.727  62.705   5.780  0.00  0.00    +0.018 A 
ATOM      5  C21 UNL     1     -51.053  61.368   6.079  0.00  0.00    +0.041 A 
ATOM      6  C22 UNL     1     -50.048  60.426   6.385  0.00  0.00    +0.172 A 
ENDROOT
BRANCH   4   7
ATOM      7  C6  UNL     1     -51.775  63.712   5.427  0.00  0.00    +0.079 C 
ATOM      8  N1  UNL     1     -51.777  64.214   4.227  0.00  0.00    -0.172 NA
ATOM      9  N2  UNL     1     -52.709  65.169   3.769  0.00  0.00    -0.222 N 
ATOM     10  C14 UNL     1     -53.806  65.418   4.448  0.00  0.00    +0.253 C 
ATOM     11  O2  UNL     1     -54.761  66.295   3.921  0.00  0.00    -0.271 OA
ATOM     12  C15 UNL     1     -54.079  64.690   5.758  0.00  0.00    +0.091 C 
ATOM     13  C16 UNL     1     -54.899  65.526   6.761  0.00  0.00    +0.035 C 
ATOM     14  C17 UNL     1     -54.134  66.762   7.126  0.00  0.00    -0.030 C 
ATOM     15  C18 UNL     1     -52.815  66.687   7.347  0.00  0.00    -0.030 C 
ATOM     16  C19 UNL     1     -52.082  65.365   7.317  0.00  0.00    +0.032 C 
ATOM     17  C20 UNL     1     -52.755  64.251   6.447  0.00  0.00    +0.056 C 
BRANCH   9  18
ATOM     18  C7  UNL     1     -52.417  65.801   2.465  0.00  0.00    +0.108 C 
ATOM     19  C8  UNL     1     -50.912  66.166   2.346  0.00  0.00    +0.024 C 
ATOM     20  C9  UNL     1     -50.675  67.416   1.482  0.00  0.00    +0.002 C 
ATOM     21  C10 UNL     1     -50.767  67.146  -0.023  0.00  0.00    +0.000 C 
ATOM     22  C11 UNL     1     -52.135  66.612  -0.468  0.00  0.00    +0.000 C 
ATOM     23  C12 UNL     1     -52.339  65.140  -0.073  0.00  0.00    +0.002 C 
ATOM     24  C13 UNL     1     -52.995  64.947   1.304  0.00  0.00    +0.024 C 
ENDBRANCH   9  18
ENDBRANCH   4   7
BRANCH   1  26
ATOM     25  C1  UNL     1     -47.392  59.511   8.100  0.00  0.00    +0.253 C 
ATOM     26  O1  UNL     1     -47.733  59.881   6.768  0.00  0.00    -0.468 OA
ENDBRANCH   1  26
BRANCH   6  27
ATOM     27  O3  UNL     1     -50.335  59.076   6.649  0.00  0.00    -0.472 OA
BRANCH  27  28
ATOM     28  C23 UNL     1     -51.203  58.242   5.882  0.00  0.00    +0.206 C 
BRANCH  28  29
ATOM     29  C24 UNL     1     -52.664  58.475   6.279  0.00  0.00    +0.051 C 
BRANCH  29  30
ATOM     30  C25 UNL     1     -53.581  58.470   5.050  0.00  0.00    +0.051 C 
BRANCH  30  31
ATOM     31  C26 UNL     1     -54.847  57.652   5.303  0.00  0.00    +0.206 C 
BRANCH  31  32
ATOM     32  O4  UNL     1     -54.782  56.438   4.556  0.00  0.00    -0.475 OA
BRANCH  32  33
ATOM     33  C27 UNL     1     -53.630  55.654   4.401  0.00  0.00    +0.139 A 
ATOM     34  C28 UNL     1     -53.398  54.635   5.327  0.00  0.00    +0.037 A 
ATOM     35  C29 UNL     1     -52.251  53.844   5.244  0.00  0.00    +0.006 A 
ATOM     36  C30 UNL     1     -51.314  54.048   4.212  0.00  0.00    +0.040 A 
ATOM     37  C32 UNL     1     -51.563  55.060   3.263  0.00  0.00    +0.006 A 
ATOM     38  C33 UNL     1     -52.706  55.860   3.360  0.00  0.00    +0.037 A 
BRANCH  36  39
ATOM     39  C31 UNL     1     -50.086  53.215   4.131  0.00  0.00    +0.208 A 
ATOM     40  N3  UNL     1     -49.470  52.625   5.178  0.00  0.00    -0.106 NA
ATOM     41  N4  UNL     1     -48.442  51.969   4.668  0.00  0.00    -0.021 NA
ATOM     42  N5  UNL     1     -48.413  52.143   3.358  0.00  0.00    -0.021 NA
ATOM     43  N6  UNL     1     -49.423  52.910   2.992  0.00  0.00    -0.106 NA
ENDBRANCH  36  39
ENDBRANCH  32  33
ENDBRANCH  31  32
ENDBRANCH  30  31
ENDBRANCH  29  30
ENDBRANCH  28  29
ENDBRANCH  27  28
ENDBRANCH   6  27
TORSDOF 11
ENDMDL
MODEL 5
REMARK VINA RESULT:      -7.2      3.048      9.322
REMARK  Name = ./data/4wxx_site_bc02/pdb/l1c0.pdb
REMARK  11 active torsions:
REMARK  status: ('A' for Active; 'I' for Inactive)
REMARK    1  A    between atoms: O1_2  and  C2_3
REMARK    2  A    between atoms: C5_6  and  C6_7
REMARK    3  A    between atoms: N2_9  and  C7_10
REMARK    4  A    between atoms: C22_26  and  O3_27
REMARK    5  A    between atoms: O3_27  and  C23_28
REMARK    6  A    between atoms: C23_28  and  C24_29
REMARK    7  A    between atoms: C24_29  and  C25_30
REMARK    8  A    between atoms: C25_30  and  C26_31
REMARK    9  A    between atoms: C26_31  and  O4_32
REMARK   10  A    between atoms: O4_32  and  C27_33
REMARK   11  A    between atoms: C30_36  and  C31_37
REMARK                            x       y       z     vdW  Elec       q    Type
REMARK                         _______ _______ _______ _____ _____    ______ ____
ROOT
ATOM      1  C2  UNL     1     -48.816  59.658   6.538  0.00  0.00    +0.172 A 
ATOM      2  C3  UNL     1     -48.442  61.006   6.662  0.00  0.00    +0.040 A 
ATOM      3  C4  UNL     1     -49.372  62.021   6.437  0.00  0.00    +0.005 A 
ATOM      4  C5  UNL     1     -50.701  61.721   6.091  0.00  0.00    +0.018 A 
ATOM      5  C21 UNL     1     -51.075  60.367   5.982  0.00  0.00    +0.041 A 
ATOM      6  C22 UNL     1     -50.133  59.335   6.183  0.00  0.00    +0.172 A 
ENDROOT
BRANCH   4   7
ATOM      7  C6  UNL     1     -51.677  62.829   5.855  0.00  0.00    +0.079 C 
ATOM      8  N1  UNL     1     -51.866  63.245   4.638  0.00  0.00    -0.172 NA
ATOM      9  N2  UNL     1     -52.756  64.279   4.283  0.00  0.00    -0.222 N 
ATOM     10  C14 UNL     1     -53.657  64.715   5.135  0.00  0.00    +0.253 C 
ATOM     11  O2  UNL     1     -54.592  65.671   4.724  0.00  0.00    -0.271 OA
ATOM     12  C15 UNL     1     -53.739  64.119   6.535  0.00  0.00    +0.091 C 
ATOM     13  C16 UNL     1     -54.236  65.122   7.596  0.00  0.00    +0.035 C 
ATOM     14  C17 UNL     1     -53.277  66.269   7.690  0.00  0.00    -0.030 C 
ATOM     15  C18 UNL     1     -51.958  66.038   7.657  0.00  0.00    -0.030 C 
ATOM     16  C19 UNL     1     -51.402  64.633   7.608  0.00  0.00    +0.032 C 
ATOM     17  C20 UNL     1     -52.361  63.559   6.992  0.00  0.00    +0.056 C 
BRANCH   9  18
ATOM     18  C7  UNL     1     -52.665  64.778   2.894  0.00  0.00    +0.108 C 
ATOM     19  C8  UNL     1     -51.286  65.440   2.627  0.00  0.00    +0.024 C 
ATOM     20  C9  UNL     1     -51.369  66.583   1.603  0.00  0.00    +0.002 C 
ATOM     21  C10 UNL     1     -51.459  66.100   0.152  0.00  0.00    +0.000 C 
ATOM     22  C11 UNL     1     -52.690  65.228  -0.129  0.00  0.00    +0.000 C 
ATOM     23  C12 UNL     1     -52.545  63.813   0.457  0.00  0.00    +0.002 C 
ATOM     24  C13 UNL     1     -53.084  63.671   1.889  0.00  0.00    +0.024 C 
ENDBRANCH   9  18
ENDBRANCH   4   7
BRANCH   1  26
ATOM     25  C1  UNL     1     -47.266  58.349   8.001  0.00  0.00    +0.253 C 
ATOM     26  O1  UNL     1     -47.909  58.610   6.757  0.00  0.00    -0.468 OA
ENDBRANCH   1  26
BRANCH   6  27
ATOM     27  O3  UNL     1     -50.463  57.976   6.044  0.00  0.00    -0.472 OA
BRANCH  27  28
ATOM     28  C23 UNL     1     -51.594  57.459   5.342  0.00  0.00    +0.206 C 
BRANCH  28  29
ATOM     29  C24 UNL     1     -51.756  55.961   5.611  0.00  0.00    +0.051 C 
BRANCH  29  30
ATOM     30  C25 UNL     1     -51.850  55.168   4.301  0.00  0.00    +0.051 C 
BRANCH  30  31
ATOM     31  C26 UNL     1     -51.381  53.725   4.488  0.00  0.00    +0.206 C 
BRANCH  31  32
ATOM     32  O4  UNL     1     -50.047  53.595   3.999  0.00  0.00    -0.475 OA
BRANCH  32  33
ATOM     33  C27 UNL     1     -48.907  54.090   4.646  0.00  0.00    +0.139 A 
ATOM     34  C28 UNL     1     -48.233  53.246   5.531  0.00  0.00    +0.037 A 
ATOM     35  C29 UNL     1     -47.111  53.696   6.229  0.00  0.00    +0.006 A 
ATOM     36  C30 UNL     1     -46.626  55.004   6.040  0.00  0.00    +0.040 A 
ATOM     37  C32 UNL     1     -47.292  55.846   5.127  0.00  0.00    +0.006 A 
ATOM     38  C33 UNL     1     -48.425  55.396   4.441  0.00  0.00    +0.037 A 
BRANCH  36  39
ATOM     39  C31 UNL     1     -45.439  55.487   6.793  0.00  0.00    +0.208 A 
ATOM     40  N3  UNL     1     -44.490  56.318   6.309  0.00  0.00    -0.106 NA
ATOM     41  N4  UNL     1     -43.640  56.509   7.303  0.00  0.00    -0.021 NA
ATOM     42  N5  UNL     1     -44.036  55.826   8.362  0.00  0.00    -0.021 NA
ATOM     43  N6  UNL     1     -45.153  55.182   8.079  0.00  0.00    -0.106 NA
ENDBRANCH  36  39
ENDBRANCH  32  33
ENDBRANCH  31  32
ENDBRANCH  30  31
ENDBRANCH  29  30
ENDBRANCH  28  29
ENDBRANCH  27  28
ENDBRANCH   6  27
TORSDOF 11
ENDMDL
MODEL 6
REMARK VINA RESULT:      -7.1      3.967      9.347
REMARK  Name = ./data/4wxx_site_bc02/pdb/l1c0.pdb
REMARK  11 active torsions:
REMARK  status: ('A' for Active; 'I' for Inactive)
REMARK    1  A    between atoms: O1_2  and  C2_3
REMARK    2  A    between atoms: C5_6  and  C6_7
REMARK    3  A    between atoms: N2_9  and  C7_10
REMARK    4  A    between atoms: C22_26  and  O3_27
REMARK    5  A    between atoms: O3_27  and  C23_28
REMARK    6  A    between atoms: C23_28  and  C24_29
REMARK    7  A    between atoms: C24_29  and  C25_30
REMARK    8  A    between atoms: C25_30  and  C26_31
REMARK    9  A    between atoms: C26_31  and  O4_32
REMARK   10  A    between atoms: O4_32  and  C27_33
REMARK   11  A    between atoms: C30_36  and  C31_37
REMARK                            x       y       z     vdW  Elec       q    Type
REMARK                         _______ _______ _______ _____ _____    ______ ____
ROOT
ATOM      1  C2  UNL     1     -54.139  63.228   7.266  0.00  0.00    +0.172 A 
ATOM      2  C3  UNL     1     -53.689  64.549   7.110  0.00  0.00    +0.040 A 
ATOM      3  C4  UNL     1     -53.399  65.051   5.841  0.00  0.00    +0.005 A 
ATOM      4  C5  UNL     1     -53.556  64.253   4.694  0.00  0.00    +0.018 A 
ATOM      5  C21 UNL     1     -54.020  62.933   4.856  0.00  0.00    +0.041 A 
ATOM      6  C22 UNL     1     -54.292  62.410   6.138  0.00  0.00    +0.172 A 
ENDROOT
BRANCH   4   7
ATOM      7  C6  UNL     1     -53.236  64.817   3.346  0.00  0.00    +0.079 C 
ATOM      8  N1  UNL     1     -53.123  66.106   3.221  0.00  0.00    -0.172 NA
ATOM      9  N2  UNL     1     -52.825  66.762   2.009  0.00  0.00    -0.222 N 
ATOM     10  C14 UNL     1     -52.376  66.090   0.972  0.00  0.00    +0.253 C 
ATOM     11  O2  UNL     1     -51.993  66.777  -0.185  0.00  0.00    -0.271 OA
ATOM     12  C15 UNL     1     -52.189  64.580   1.061  0.00  0.00    +0.091 C 
ATOM     13  C16 UNL     1     -52.393  63.861  -0.288  0.00  0.00    +0.035 C 
ATOM     14  C17 UNL     1     -53.798  64.077  -0.764  0.00  0.00    -0.030 C 
ATOM     15  C18 UNL     1     -54.812  64.014   0.108  0.00  0.00    -0.030 C 
ATOM     16  C19 UNL     1     -54.589  63.647   1.557  0.00  0.00    +0.032 C 
ATOM     17  C20 UNL     1     -53.154  63.952   2.106  0.00  0.00    +0.056 C 
BRANCH   9  18
ATOM     18  C7  UNL     1     -52.973  68.233   2.002  0.00  0.00    +0.108 C 
ATOM     19  C8  UNL     1     -53.794  68.718   3.227  0.00  0.00    +0.024 C 
ATOM     20  C9  UNL     1     -54.612  69.984   2.925  0.00  0.00    +0.002 C 
ATOM     21  C10 UNL     1     -53.776  71.268   2.931  0.00  0.00    +0.000 C 
ATOM     22  C11 UNL     1     -52.647  71.269   1.892  0.00  0.00    +0.000 C 
ATOM     23  C12 UNL     1     -51.475  70.366   2.308  0.00  0.00    +0.002 C 
ATOM     24  C13 UNL     1     -51.593  68.918   1.805  0.00  0.00    +0.024 C 
ENDBRANCH   9  18
ENDBRANCH   4   7
BRANCH   1  26
ATOM     25  C1  UNL     1     -53.537  61.916   9.309  0.00  0.00    +0.253 C 
ATOM     26  O1  UNL     1     -54.442  62.688   8.526  0.00  0.00    -0.468 OA
ENDBRANCH   1  26
BRANCH   6  27
ATOM     27  O3  UNL     1     -54.719  61.086   6.337  0.00  0.00    -0.472 OA
BRANCH  27  28
ATOM     28  C23 UNL     1     -53.879  59.932   6.351  0.00  0.00    +0.206 C 
BRANCH  28  29
ATOM     29  C24 UNL     1     -52.487  60.272   5.813  0.00  0.00    +0.051 C 
BRANCH  29  30
ATOM     30  C25 UNL     1     -51.471  59.180   6.169  0.00  0.00    +0.051 C 
BRANCH  30  31
ATOM     31  C26 UNL     1     -50.381  59.713   7.098  0.00  0.00    +0.206 C 
BRANCH  31  32
ATOM     32  O4  UNL     1     -50.614  61.097   7.355  0.00  0.00    -0.475 OA
BRANCH  32  33
ATOM     33  C27 UNL     1     -49.789  62.142   6.917  0.00  0.00    +0.139 A 
ATOM     34  C28 UNL     1     -50.290  63.444   6.974  0.00  0.00    +0.037 A 
ATOM     35  C29 UNL     1     -49.526  64.521   6.521  0.00  0.00    +0.006 A 
ATOM     36  C30 UNL     1     -48.228  64.317   6.015  0.00  0.00    +0.040 A 
ATOM     37  C32 UNL     1     -47.714  63.005   5.983  0.00  0.00    +0.006 A 
ATOM     38  C33 UNL     1     -48.489  61.927   6.424  0.00  0.00    +0.037 A 
BRANCH  36  39
ATOM     39  C31 UNL     1     -47.420  65.461   5.520  0.00  0.00    +0.208 A 
ATOM     40  N3  UNL     1     -46.309  65.949   6.113  0.00  0.00    -0.106 NA
ATOM     41  N4  UNL     1     -45.895  66.940   5.341  0.00  0.00    -0.021 NA
ATOM     42  N5  UNL     1     -46.713  67.070   4.312  0.00  0.00    -0.021 NA
ATOM     43  N6  UNL     1     -47.670  66.164   4.392  0.00  0.00    -0.106 NA
ENDBRANCH  36  39
ENDBRANCH  32  33
ENDBRANCH  31  32
ENDBRANCH  30  31
ENDBRANCH  29  30
ENDBRANCH  28  29
ENDBRANCH  27  28
ENDBRANCH   6  27
TORSDOF 11
ENDMDL
MODEL 7
REMARK VINA RESULT:      -6.9      4.192      6.770
REMARK  Name = ./data/4wxx_site_bc02/pdb/l1c0.pdb
REMARK  11 active torsions:
REMARK  status: ('A' for Active; 'I' for Inactive)
REMARK    1  A    between atoms: O1_2  and  C2_3
REMARK    2  A    between atoms: C5_6  and  C6_7
REMARK    3  A    between atoms: N2_9  and  C7_10
REMARK    4  A    between atoms: C22_26  and  O3_27
REMARK    5  A    between atoms: O3_27  and  C23_28
REMARK    6  A    between atoms: C23_28  and  C24_29
REMARK    7  A    between atoms: C24_29  and  C25_30
REMARK    8  A    between atoms: C25_30  and  C26_31
REMARK    9  A    between atoms: C26_31  and  O4_32
REMARK   10  A    between atoms: O4_32  and  C27_33
REMARK   11  A    between atoms: C30_36  and  C31_37
REMARK                            x       y       z     vdW  Elec       q    Type
REMARK                         _______ _______ _______ _____ _____    ______ ____
ROOT
ATOM      1  C2  UNL     1     -50.291  60.974   6.478  0.00  0.00    +0.172 A 
ATOM      2  C3  UNL     1     -49.140  60.324   6.003  0.00  0.00    +0.040 A 
ATOM      3  C4  UNL     1     -49.221  59.032   5.483  0.00  0.00    +0.005 A 
ATOM      4  C5  UNL     1     -50.452  58.356   5.416  0.00  0.00    +0.018 A 
ATOM      5  C21 UNL     1     -51.605  59.017   5.881  0.00  0.00    +0.041 A 
ATOM      6  C22 UNL     1     -51.527  60.314   6.431  0.00  0.00    +0.172 A 
ENDROOT
BRANCH   4   7
ATOM      7  C6  UNL     1     -50.510  56.971   4.855  0.00  0.00    +0.079 C 
ATOM      8  N1  UNL     1     -51.455  56.174   5.258  0.00  0.00    -0.172 NA
ATOM      9  N2  UNL     1     -51.620  54.847   4.808  0.00  0.00    -0.222 N 
ATOM     10  C14 UNL     1     -50.982  54.414   3.743  0.00  0.00    +0.253 C 
ATOM     11  O2  UNL     1     -51.240  53.127   3.260  0.00  0.00    -0.271 OA
ATOM     12  C15 UNL     1     -50.034  55.338   2.989  0.00  0.00    +0.091 C 
ATOM     13  C16 UNL     1     -48.867  54.591   2.311  0.00  0.00    +0.035 C 
ATOM     14  C17 UNL     1     -48.036  53.907   3.354  0.00  0.00    -0.030 C 
ATOM     15  C18 UNL     1     -47.756  54.540   4.501  0.00  0.00    -0.030 C 
ATOM     16  C19 UNL     1     -48.191  55.967   4.745  0.00  0.00    +0.032 C 
ATOM     17  C20 UNL     1     -49.443  56.429   3.927  0.00  0.00    +0.056 C 
BRANCH   9  18
ATOM     18  C7  UNL     1     -52.594  54.017   5.547  0.00  0.00    +0.108 C 
ATOM     19  C8  UNL     1     -53.395  53.103   4.580  0.00  0.00    +0.024 C 
ATOM     20  C9  UNL     1     -54.825  52.831   5.075  0.00  0.00    +0.002 C 
ATOM     21  C10 UNL     1     -54.898  51.781   6.188  0.00  0.00    +0.000 C 
ATOM     22  C11 UNL     1     -54.110  52.165   7.447  0.00  0.00    +0.000 C 
ATOM     23  C12 UNL     1     -52.592  52.019   7.248  0.00  0.00    +0.002 C 
ATOM     24  C13 UNL     1     -51.904  53.294   6.736  0.00  0.00    +0.024 C 
ENDBRANCH   9  18
ENDBRANCH   4   7
BRANCH   1  26
ATOM     25  C1  UNL     1     -50.758  63.427   6.345  0.00  0.00    +0.253 C 
ATOM     26  O1  UNL     1     -50.248  62.273   7.006  0.00  0.00    -0.468 OA
ENDBRANCH   1  26
BRANCH   6  27
ATOM     27  O3  UNL     1     -52.651  60.987   6.940  0.00  0.00    -0.472 OA
BRANCH  27  28
ATOM     28  C23 UNL     1     -53.413  60.594   8.082  0.00  0.00    +0.206 C 
BRANCH  28  29
ATOM     29  C24 UNL     1     -53.076  61.480   9.285  0.00  0.00    +0.051 C 
BRANCH  29  30
ATOM     30  C25 UNL     1     -51.575  61.446   9.597  0.00  0.00    +0.051 C 
BRANCH  30  31
ATOM     31  C26 UNL     1     -51.160  60.104  10.199  0.00  0.00    +0.206 C 
BRANCH  31  32
ATOM     32  O4  UNL     1     -49.826  60.201  10.697  0.00  0.00    -0.475 OA
BRANCH  32  33
ATOM     33  C27 UNL     1     -48.797  59.295  10.407  0.00  0.00    +0.139 A 
ATOM     34  C28 UNL     1     -48.470  58.340  11.371  0.00  0.00    +0.037 A 
ATOM     35  C29 UNL     1     -47.431  57.433  11.152  0.00  0.00    +0.006 A 
ATOM     36  C30 UNL     1     -46.706  57.452   9.945  0.00  0.00    +0.040 A 
ATOM     37  C32 UNL     1     -47.056  58.400   8.962  0.00  0.00    +0.006 A 
ATOM     38  C33 UNL     1     -48.087  59.317   9.193  0.00  0.00    +0.037 A 
BRANCH  36  39
ATOM     39  C31 UNL     1     -45.592  56.496   9.717  0.00  0.00    +0.208 A 
ATOM     40  N3  UNL     1     -44.630  56.188  10.613  0.00  0.00    -0.106 NA
ATOM     41  N4  UNL     1     -43.861  55.291  10.021  0.00  0.00    -0.021 NA
ATOM     42  N5  UNL     1     -44.319  55.049   8.805  0.00  0.00    -0.021 NA
ATOM     43  N6  UNL     1     -45.396  55.781   8.586  0.00  0.00    -0.106 NA
ENDBRANCH  36  39
ENDBRANCH  32  33
ENDBRANCH  31  32
ENDBRANCH  30  31
ENDBRANCH  29  30
ENDBRANCH  28  29
ENDBRANCH  27  28
ENDBRANCH   6  27
TORSDOF 11
ENDMDL
