MODEL 1
REMARK VINA RESULT:      -7.2      0.000      0.000
REMARK  Name = ./data/4wxx_site_bc02/pdb/l0c0.pdb
REMARK  11 active torsions:
REMARK  status: ('A' for Active; 'I' for Inactive)
REMARK    1  A    between atoms: O1_2  and  C2_3
REMARK    2  A    between atoms: C5_6  and  C6_7
REMARK    3  A    between atoms: N2_9  and  C7_10
REMARK    4  A    between atoms: C19_23  and  O3_24
REMARK    5  A    between atoms: O3_24  and  C20_25
REMARK    6  A    between atoms: C20_25  and  C21_26
REMARK    7  A    between atoms: C21_26  and  C22_27
REMARK    8  A    between atoms: C22_27  and  C23_28
REMARK    9  A    between atoms: C23_28  and  O4_29
REMARK   10  A    between atoms: O4_29  and  C24_30
REMARK   11  A    between atoms: C27_33  and  C28_34
REMARK                            x       y       z     vdW  Elec       q    Type
REMARK                         _______ _______ _______ _____ _____    ______ ____
ROOT
ATOM      1  C2  UNL     1     -88.288  60.880  -9.685  0.00  0.00    +0.172 A 
ATOM      2  C3  UNL     1     -89.231  60.018  -9.096  0.00  0.00    +0.040 A 
ATOM      3  C4  UNL     1     -90.433  60.517  -8.587  0.00  0.00    +0.005 A 
ATOM      4  C5  UNL     1     -90.721  61.890  -8.653  0.00  0.00    +0.019 A 
ATOM      5  C18 UNL     1     -89.762  62.750  -9.221  0.00  0.00    +0.041 A 
ATOM      6  C19 UNL     1     -88.559  62.253  -9.757  0.00  0.00    +0.172 A 
ENDROOT
BRANCH   4   7
ATOM      7  C6  UNL     1     -92.010  62.468  -8.171  0.00  0.00    +0.086 C 
ATOM      8  N1  UNL     1     -92.077  63.069  -7.025  0.00  0.00    -0.171 NA
ATOM      9  N2  UNL     1     -93.363  63.556  -6.808  0.00  0.00    -0.222 N 
ATOM     10  C14 UNL     1     -94.122  63.264  -7.812  0.00  0.00    +0.257 C 
ATOM     11  O2  UNL     1     -95.469  63.616  -7.882  0.00  0.00    -0.270 OA
ATOM     12  C15 UNL     1     -93.360  62.517  -8.873  0.00  0.00    +0.110 C 
ATOM     13  C16 UNL     1     -93.973  61.122  -9.074  0.00  0.00    +0.015 C 
ATOM     14  C17 UNL     1     -93.327  63.350 -10.166  0.00  0.00    +0.015 C 
BRANCH   9  15
ATOM     15  C7  UNL     1     -93.741  64.316  -5.609  0.00  0.00    +0.108 C 
ATOM     16  C8  UNL     1     -92.931  63.798  -4.400  0.00  0.00    +0.024 C 
ATOM     17  C9  UNL     1     -92.980  64.720  -3.170  0.00  0.00    +0.002 C 
ATOM     18  C10 UNL     1     -91.844  65.757  -3.177  0.00  0.00    +0.000 C 
ATOM     19  C11 UNL     1     -92.058  66.904  -4.172  0.00  0.00    +0.000 C 
ATOM     20  C12 UNL     1     -92.222  66.437  -5.627  0.00  0.00    +0.002 C 
ATOM     21  C13 UNL     1     -93.615  65.834  -5.891  0.00  0.00    +0.024 C 
ENDBRANCH   9  15
ENDBRANCH   4   7
BRANCH   1  23
ATOM     22  C1  UNL     1     -86.849  60.111 -11.584  0.00  0.00    +0.253 C 
ATOM     23  O1  UNL     1     -87.073  60.412 -10.209  0.00  0.00    -0.468 OA
ENDBRANCH   1  23
BRANCH   6  24
ATOM     24  O3  UNL     1     -87.610  63.091 -10.371  0.00  0.00    -0.472 OA
BRANCH  24  25
ATOM     25  C20 UNL     1     -87.360  64.454 -10.021  0.00  0.00    +0.206 C 
BRANCH  25  26
ATOM     26  C21 UNL     1     -87.923  65.409 -11.084  0.00  0.00    +0.051 C 
BRANCH  26  27
ATOM     27  C22 UNL     1     -88.932  66.381 -10.464  0.00  0.00    +0.051 C 
BRANCH  27  28
ATOM     28  C23 UNL     1     -88.507  66.792  -9.051  0.00  0.00    +0.206 C 
BRANCH  28  29
ATOM     29  O4  UNL     1     -89.456  67.700  -8.488  0.00  0.00    -0.475 OA
BRANCH  29  30
ATOM     30  C24 UNL     1     -89.294  69.094  -8.407  0.00  0.00    +0.139 A 
ATOM     31  C25 UNL     1     -88.714  69.856  -9.440  0.00  0.00    +0.037 A 
ATOM     32  C26 UNL     1     -88.576  71.241  -9.305  0.00  0.00    +0.006 A 
ATOM     33  C27 UNL     1     -89.019  71.894  -8.142  0.00  0.00    +0.040 A 
ATOM     34  C29 UNL     1     -89.602  71.130  -7.116  0.00  0.00    +0.006 A 
ATOM     35  C30 UNL     1     -89.737  69.744  -7.251  0.00  0.00    +0.037 A 
BRANCH  33  36
ATOM     36  C28 UNL     1     -88.874  73.364  -8.001  0.00  0.00    +0.208 A 
ATOM     37  N3  UNL     1     -87.919  73.988  -7.276  0.00  0.00    -0.106 NA
ATOM     38  N4  UNL     1     -88.156  75.283  -7.412  0.00  0.00    -0.021 NA
ATOM     39  N5  UNL     1     -89.209  75.461  -8.191  0.00  0.00    -0.021 NA
ATOM     40  N6  UNL     1     -89.679  74.285  -8.573  0.00  0.00    -0.106 NA
ENDBRANCH  33  36
ENDBRANCH  29  30
ENDBRANCH  28  29
ENDBRANCH  27  28
ENDBRANCH  26  27
ENDBRANCH  25  26
ENDBRANCH  24  25
ENDBRANCH   6  24
TORSDOF 11
ENDMDL
MODEL 2
REMARK VINA RESULT:      -6.6      4.580      6.467
REMARK  Name = ./data/4wxx_site_bc02/pdb/l0c0.pdb
REMARK  11 active torsions:
REMARK  status: ('A' for Active; 'I' for Inactive)
REMARK    1  A    between atoms: O1_2  and  C2_3
REMARK    2  A    between atoms: C5_6  and  C6_7
REMARK    3  A    between atoms: N2_9  and  C7_10
REMARK    4  A    between atoms: C19_23  and  O3_24
REMARK    5  A    between atoms: O3_24  and  C20_25
REMARK    6  A    between atoms: C20_25  and  C21_26
REMARK    7  A    between atoms: C21_26  and  C22_27
REMARK    8  A    between atoms: C22_27  and  C23_28
REMARK    9  A    between atoms: C23_28  and  O4_29
REMARK   10  A    between atoms: O4_29  and  C24_30
REMARK   11  A    between atoms: C27_33  and  C28_34
REMARK                            x       y       z     vdW  Elec       q    Type
REMARK                         _______ _______ _______ _____ _____    ______ ____
ROOT
ATOM      1  C2  UNL     1     -88.962  61.391 -10.396  0.00  0.00    +0.172 A 
ATOM      2  C3  UNL     1     -89.612  60.539  -9.484  0.00  0.00    +0.040 A 
ATOM      3  C4  UNL     1     -90.751  60.967  -8.796  0.00  0.00    +0.005 A 
ATOM      4  C5  UNL     1     -91.267  62.257  -9.001  0.00  0.00    +0.019 A 
ATOM      5  C18 UNL     1     -90.597  63.112  -9.896  0.00  0.00    +0.041 A 
ATOM      6  C19 UNL     1     -89.463  62.682 -10.611  0.00  0.00    +0.172 A 
ENDROOT
BRANCH   4   7
ATOM      7  C6  UNL     1     -92.508  62.747  -8.332  0.00  0.00    +0.086 C 
ATOM      8  N1  UNL     1     -92.443  63.391  -7.210  0.00  0.00    -0.171 NA
ATOM      9  N2  UNL     1     -93.716  63.778  -6.799  0.00  0.00    -0.222 N 
ATOM     10  C14 UNL     1     -94.597  63.377  -7.655  0.00  0.00    +0.257 C 
ATOM     11  O2  UNL     1     -95.964  63.612  -7.513  0.00  0.00    -0.270 OA
ATOM     12  C15 UNL     1     -93.952  62.650  -8.803  0.00  0.00    +0.110 C 
ATOM     13  C16 UNL     1     -94.461  61.201  -8.856  0.00  0.00    +0.015 C 
ATOM     14  C17 UNL     1     -94.204  63.423 -10.109  0.00  0.00    +0.015 C 
BRANCH   9  15
ATOM     15  C7  UNL     1     -93.962  64.557  -5.579  0.00  0.00    +0.108 C 
ATOM     16  C8  UNL     1     -93.299  63.848  -4.378  0.00  0.00    +0.024 C 
ATOM     17  C9  UNL     1     -93.191  64.720  -3.115  0.00  0.00    +0.002 C 
ATOM     18  C10 UNL     1     -91.872  65.509  -3.066  0.00  0.00    +0.000 C 
ATOM     19  C11 UNL     1     -91.832  66.709  -4.021  0.00  0.00    +0.000 C 
ATOM     20  C12 UNL     1     -92.053  66.332  -5.494  0.00  0.00    +0.002 C 
ATOM     21  C13 UNL     1     -93.531  66.028  -5.802  0.00  0.00    +0.024 C 
ENDBRANCH   9  15
ENDBRANCH   4   7
BRANCH   1  23
ATOM     22  C1  UNL     1     -87.842  60.350 -12.377  0.00  0.00    +0.253 C 
ATOM     23  O1  UNL     1     -87.819  60.991 -11.106  0.00  0.00    -0.468 OA
ENDBRANCH   1  23
BRANCH   6  24
ATOM     24  O3  UNL     1     -88.808  63.506 -11.544  0.00  0.00    -0.472 OA
BRANCH  24  25
ATOM     25  C20 UNL     1     -89.449  64.441 -12.415  0.00  0.00    +0.206 C 
BRANCH  25  26
ATOM     26  C21 UNL     1     -89.074  65.884 -12.047  0.00  0.00    +0.051 C 
BRANCH  26  27
ATOM     27  C22 UNL     1     -87.826  66.336 -12.813  0.00  0.00    +0.051 C 
BRANCH  27  28
ATOM     28  C23 UNL     1     -87.099  67.461 -12.069  0.00  0.00    +0.206 C 
BRANCH  28  29
ATOM     29  O4  UNL     1     -85.848  66.997 -11.561  0.00  0.00    -0.475 OA
BRANCH  29  30
ATOM     30  C24 UNL     1     -85.422  65.658 -11.553  0.00  0.00    +0.139 A 
ATOM     31  C25 UNL     1     -84.540  65.132 -12.516  0.00  0.00    +0.037 A 
ATOM     32  C26 UNL     1     -84.150  63.790 -12.462  0.00  0.00    +0.006 A 
ATOM     33  C27 UNL     1     -84.628  62.948 -11.443  0.00  0.00    +0.040 A 
ATOM     34  C29 UNL     1     -85.504  63.478 -10.480  0.00  0.00    +0.006 A 
ATOM     35  C30 UNL     1     -85.895  64.820 -10.538  0.00  0.00    +0.037 A 
BRANCH  33  36
ATOM     36  C28 UNL     1     -84.213  61.525 -11.385  0.00  0.00    +0.208 A 
ATOM     37  N3  UNL     1     -84.357  60.628 -12.386  0.00  0.00    -0.106 NA
ATOM     38  N4  UNL     1     -83.870  59.489 -11.920  0.00  0.00    -0.021 NA
ATOM     39  N5  UNL     1     -83.436  59.667 -10.684  0.00  0.00    -0.021 NA
ATOM     40  N6  UNL     1     -83.636  60.923 -10.322  0.00  0.00    -0.106 NA
ENDBRANCH  33  36
ENDBRANCH  29  30
ENDBRANCH  28  29
ENDBRANCH  27  28
ENDBRANCH  26  27
ENDBRANCH  25  26
ENDBRANCH  24  25
ENDBRANCH   6  24
TORSDOF 11
ENDMDL
MODEL 3
REMARK VINA RESULT:      -6.6      3.251      8.214
REMARK  Name = ./data/4wxx_site_bc02/pdb/l0c0.pdb
REMARK  11 active torsions:
REMARK  status: ('A' for Active; 'I' for Inactive)
REMARK    1  A    between atoms: O1_2  and  C2_3
REMARK    2  A    between atoms: C5_6  and  C6_7
REMARK    3  A    between atoms: N2_9  and  C7_10
REMARK    4  A    between atoms: C19_23  and  O3_24
REMARK    5  A    between atoms: O3_24  and  C20_25
REMARK    6  A    between atoms: C20_25  and  C21_26
REMARK    7  A    between atoms: C21_26  and  C22_27
REMARK    8  A    between atoms: C22_27  and  C23_28
REMARK    9  A    between atoms: C23_28  and  O4_29
REMARK   10  A    between atoms: O4_29  and  C24_30
REMARK   11  A    between atoms: C27_33  and  C28_34
REMARK                            x       y       z     vdW  Elec       q    Type
REMARK                         _______ _______ _______ _____ _____    ______ ____
ROOT
ATOM      1  C2  UNL     1     -92.891  65.249  -4.129  0.00  0.00    +0.172 A 
ATOM      2  C3  UNL     1     -92.236  66.452  -3.807  0.00  0.00    +0.040 A 
ATOM      3  C4  UNL     1     -91.868  67.353  -4.809  0.00  0.00    +0.005 A 
ATOM      4  C5  UNL     1     -92.143  67.074  -6.158  0.00  0.00    +0.019 A 
ATOM      5  C18 UNL     1     -92.776  65.857  -6.474  0.00  0.00    +0.041 A 
ATOM      6  C19 UNL     1     -93.172  64.954  -5.469  0.00  0.00    +0.172 A 
ENDROOT
BRANCH   4   7
ATOM      7  C6  UNL     1     -91.818  68.023  -7.262  0.00  0.00    +0.086 C 
ATOM      8  N1  UNL     1     -90.912  68.936  -7.103  0.00  0.00    -0.171 NA
ATOM      9  N2  UNL     1     -90.757  69.673  -8.275  0.00  0.00    -0.222 N 
ATOM     10  C14 UNL     1     -91.567  69.237  -9.182  0.00  0.00    +0.257 C 
ATOM     11  O2  UNL     1     -91.646  69.781 -10.463  0.00  0.00    -0.270 OA
ATOM     12  C15 UNL     1     -92.384  68.080  -8.674  0.00  0.00    +0.110 C 
ATOM     13  C16 UNL     1     -93.877  68.442  -8.699  0.00  0.00    +0.015 C 
ATOM     14  C17 UNL     1     -92.057  66.820  -9.496  0.00  0.00    +0.015 C 
BRANCH   9  15
ATOM     15  C7  UNL     1     -89.776  70.757  -8.415  0.00  0.00    +0.108 C 
ATOM     16  C8  UNL     1     -89.604  71.470  -7.056  0.00  0.00    +0.024 C 
ATOM     17  C9  UNL     1     -88.374  72.390  -6.981  0.00  0.00    +0.002 C 
ATOM     18  C10 UNL     1     -87.126  71.649  -6.474  0.00  0.00    +0.000 C 
ATOM     19  C11 UNL     1     -86.492  70.718  -7.515  0.00  0.00    +0.000 C 
ATOM     20  C12 UNL     1     -87.449  69.638  -8.040  0.00  0.00    +0.002 C 
ATOM     21  C13 UNL     1     -88.472  70.203  -9.044  0.00  0.00    +0.024 C 
ENDBRANCH   9  15
ENDBRANCH   4   7
BRANCH   1  23
ATOM     22  C1  UNL     1     -92.447  63.277  -2.651  0.00  0.00    +0.253 C 
ATOM     23  O1  UNL     1     -93.278  64.323  -3.146  0.00  0.00    -0.468 OA
ENDBRANCH   1  23
BRANCH   6  24
ATOM     24  O3  UNL     1     -93.847  63.755  -5.763  0.00  0.00    -0.472 OA
BRANCH  24  25
ATOM     25  C20 UNL     1     -95.179  63.659  -6.275  0.00  0.00    +0.206 C 
BRANCH  25  26
ATOM     26  C21 UNL     1     -95.203  62.896  -7.607  0.00  0.00    +0.051 C 
BRANCH  26  27
ATOM     27  C22 UNL     1     -94.872  63.829  -8.777  0.00  0.00    +0.051 C 
BRANCH  27  28
ATOM     28  C23 UNL     1     -93.629  63.347  -9.532  0.00  0.00    +0.206 C 
BRANCH  28  29
ATOM     29  O4  UNL     1     -92.535  63.167  -8.631  0.00  0.00    -0.475 OA
BRANCH  29  30
ATOM     30  C24 UNL     1     -91.178  63.151  -8.996  0.00  0.00    +0.139 A 
ATOM     31  C25 UNL     1     -90.708  62.507 -10.157  0.00  0.00    +0.037 A 
ATOM     32  C26 UNL     1     -89.346  62.521 -10.471  0.00  0.00    +0.006 A 
ATOM     33  C27 UNL     1     -88.426  63.182  -9.638  0.00  0.00    +0.040 A 
ATOM     34  C29 UNL     1     -88.901  63.828  -8.484  0.00  0.00    +0.006 A 
ATOM     35  C30 UNL     1     -90.264  63.811  -8.169  0.00  0.00    +0.037 A 
BRANCH  33  36
ATOM     36  C28 UNL     1     -86.981  63.199  -9.974  0.00  0.00    +0.208 A 
ATOM     37  N3  UNL     1     -86.093  64.129  -9.557  0.00  0.00    -0.106 NA
ATOM     38  N4  UNL     1     -84.932  63.777 -10.085  0.00  0.00    -0.021 NA
ATOM     39  N5  UNL     1     -85.086  62.674 -10.796  0.00  0.00    -0.021 NA
ATOM     40  N6  UNL     1     -86.350  62.289 -10.748  0.00  0.00    -0.106 NA
ENDBRANCH  33  36
ENDBRANCH  29  30
ENDBRANCH  28  29
ENDBRANCH  27  28
ENDBRANCH  26  27
ENDBRANCH  25  26
ENDBRANCH  24  25
ENDBRANCH   6  24
TORSDOF 11
ENDMDL
MODEL 4
REMARK VINA RESULT:      -6.6      4.706      8.751
REMARK  Name = ./data/4wxx_site_bc02/pdb/l0c0.pdb
REMARK  11 active torsions:
REMARK  status: ('A' for Active; 'I' for Inactive)
REMARK    1  A    between atoms: O1_2  and  C2_3
REMARK    2  A    between atoms: C5_6  and  C6_7
REMARK    3  A    between atoms: N2_9  and  C7_10
REMARK    4  A    between atoms: C19_23  and  O3_24
REMARK    5  A    between atoms: O3_24  and  C20_25
REMARK    6  A    between atoms: C20_25  and  C21_26
REMARK    7  A    between atoms: C21_26  and  C22_27
REMARK    8  A    between atoms: C22_27  and  C23_28
REMARK    9  A    between atoms: C23_28  and  O4_29
REMARK   10  A    between atoms: O4_29  and  C24_30
REMARK   11  A    between atoms: C27_33  and  C28_34
REMARK                            x       y       z     vdW  Elec       q    Type
REMARK                         _______ _______ _______ _____ _____    ______ ____
ROOT
ATOM      1  C2  UNL     1     -91.314  58.517  -9.224  0.00  0.00    +0.172 A 
ATOM      2  C3  UNL     1     -90.132  58.942  -8.589  0.00  0.00    +0.040 A 
ATOM      3  C4  UNL     1     -89.829  60.301  -8.484  0.00  0.00    +0.005 A 
ATOM      4  C5  UNL     1     -90.698  61.270  -9.013  0.00  0.00    +0.019 A 
ATOM      5  C18 UNL     1     -91.866  60.837  -9.669  0.00  0.00    +0.041 A 
ATOM      6  C19 UNL     1     -92.191  59.470  -9.758  0.00  0.00    +0.172 A 
ENDROOT
BRANCH   4   7
ATOM      7  C6  UNL     1     -90.447  62.736  -8.885  0.00  0.00    +0.086 C 
ATOM      8  N1  UNL     1     -89.409  63.280  -9.437  0.00  0.00    -0.171 NA
ATOM      9  N2  UNL     1     -89.407  64.655  -9.215  0.00  0.00    -0.222 N 
ATOM     10  C14 UNL     1     -90.440  64.991  -8.516  0.00  0.00    +0.257 C 
ATOM     11  O2  UNL     1     -90.709  66.304  -8.129  0.00  0.00    -0.270 OA
ATOM     12  C15 UNL     1     -91.296  63.796  -8.197  0.00  0.00    +0.110 C 
ATOM     13  C16 UNL     1     -91.372  63.598  -6.675  0.00  0.00    +0.015 C 
ATOM     14  C17 UNL     1     -92.680  63.965  -8.849  0.00  0.00    +0.015 C 
BRANCH   9  15
ATOM     15  C7  UNL     1     -88.374  65.551  -9.749  0.00  0.00    +0.108 C 
ATOM     16  C8  UNL     1     -87.023  64.804  -9.794  0.00  0.00    +0.024 C 
ATOM     17  C9  UNL     1     -85.944  65.505 -10.638  0.00  0.00    +0.002 C 
ATOM     18  C10 UNL     1     -85.969  65.049 -12.106  0.00  0.00    +0.000 C 
ATOM     19  C11 UNL     1     -87.131  65.635 -12.918  0.00  0.00    +0.000 C 
ATOM     20  C12 UNL     1     -88.516  65.303 -12.342  0.00  0.00    +0.002 C 
ATOM     21  C13 UNL     1     -88.847  66.149 -11.098  0.00  0.00    +0.024 C 
ENDBRANCH   9  15
ENDBRANCH   4   7
BRANCH   1  23
ATOM     22  C1  UNL     1     -91.595  56.217  -8.276  0.00  0.00    +0.253 C 
ATOM     23  O1  UNL     1     -91.651  57.159  -9.343  0.00  0.00    -0.468 OA
ENDBRANCH   1  23
BRANCH   6  24
ATOM     24  O3  UNL     1     -93.377  59.021 -10.367  0.00  0.00    -0.472 OA
BRANCH  24  25
ATOM     25  C20 UNL     1     -93.521  58.684 -11.749  0.00  0.00    +0.206 C 
BRANCH  25  26
ATOM     26  C21 UNL     1     -93.600  59.946 -12.619  0.00  0.00    +0.051 C 
BRANCH  26  27
ATOM     27  C22 UNL     1     -93.102  59.662 -14.040  0.00  0.00    +0.051 C 
BRANCH  27  28
ATOM     28  C23 UNL     1     -91.571  59.659 -14.099  0.00  0.00    +0.206 C 
BRANCH  28  29
ATOM     29  O4  UNL     1     -91.028  60.434 -13.029  0.00  0.00    -0.475 OA
BRANCH  29  30
ATOM     30  C24 UNL     1     -89.690  60.400 -12.600  0.00  0.00    +0.139 A 
ATOM     31  C25 UNL     1     -88.966  59.202 -12.458  0.00  0.00    +0.037 A 
ATOM     32  C26 UNL     1     -87.636  59.226 -12.026  0.00  0.00    +0.006 A 
ATOM     33  C27 UNL     1     -87.001  60.446 -11.733  0.00  0.00    +0.040 A 
ATOM     34  C29 UNL     1     -87.727  61.640 -11.882  0.00  0.00    +0.006 A 
ATOM     35  C30 UNL     1     -89.058  61.614 -12.312  0.00  0.00    +0.037 A 
BRANCH  33  36
ATOM     36  C28 UNL     1     -85.590  60.471 -11.277  0.00  0.00    +0.208 A 
ATOM     37  N3  UNL     1     -84.762  59.403 -11.242  0.00  0.00    -0.106 NA
ATOM     38  N4  UNL     1     -83.612  59.856 -10.768  0.00  0.00    -0.021 NA
ATOM     39  N5  UNL     1     -83.716  61.151 -10.520  0.00  0.00    -0.021 NA
ATOM     40  N6  UNL     1     -84.935  61.563 -10.826  0.00  0.00    -0.106 NA
ENDBRANCH  33  36
ENDBRANCH  29  30
ENDBRANCH  28  29
ENDBRANCH  27  28
ENDBRANCH  26  27
ENDBRANCH  25  26
ENDBRANCH  24  25
ENDBRANCH   6  24
TORSDOF 11
ENDMDL
MODEL 5
REMARK VINA RESULT:      -6.6      3.701      7.367
REMARK  Name = ./data/4wxx_site_bc02/pdb/l0c0.pdb
REMARK  11 active torsions:
REMARK  status: ('A' for Active; 'I' for Inactive)
REMARK    1  A    between atoms: O1_2  and  C2_3
REMARK    2  A    between atoms: C5_6  and  C6_7
REMARK    3  A    between atoms: N2_9  and  C7_10
REMARK    4  A    between atoms: C19_23  and  O3_24
REMARK    5  A    between atoms: O3_24  and  C20_25
REMARK    6  A    between atoms: C20_25  and  C21_26
REMARK    7  A    between atoms: C21_26  and  C22_27
REMARK    8  A    between atoms: C22_27  and  C23_28
REMARK    9  A    between atoms: C23_28  and  O4_29
REMARK   10  A    between atoms: O4_29  and  C24_30
REMARK   11  A    between atoms: C27_33  and  C28_34
REMARK                            x       y       z     vdW  Elec       q    Type
REMARK                         _______ _______ _______ _____ _____    ______ ____
ROOT
ATOM      1  C2  UNL     1     -85.382  61.817 -11.101  0.00  0.00    +0.172 A 
ATOM      2  C3  UNL     1     -84.690  62.955 -11.554  0.00  0.00    +0.040 A 
ATOM      3  C4  UNL     1     -85.360  64.163 -11.757  0.00  0.00    +0.005 A 
ATOM      4  C5  UNL     1     -86.740  64.265 -11.514  0.00  0.00    +0.019 A 
ATOM      5  C18 UNL     1     -87.431  63.116 -11.085  0.00  0.00    +0.041 A 
ATOM      6  C19 UNL     1     -86.759  61.900 -10.855  0.00  0.00    +0.172 A 
ENDROOT
BRANCH   4   7
ATOM      7  C6  UNL     1     -87.495  65.543 -11.666  0.00  0.00    +0.086 C 
ATOM      8  N1  UNL     1     -88.728  65.632 -11.279  0.00  0.00    -0.171 NA
ATOM      9  N2  UNL     1     -89.209  66.922 -11.485  0.00  0.00    -0.222 N 
ATOM     10  C14 UNL     1     -88.286  67.659 -12.008  0.00  0.00    +0.257 C 
ATOM     11  O2  UNL     1     -88.471  69.002 -12.335  0.00  0.00    -0.270 OA
ATOM     12  C15 UNL     1     -87.011  66.884 -12.201  0.00  0.00    +0.110 C 
ATOM     13  C16 UNL     1     -86.651  66.830 -13.694  0.00  0.00    +0.015 C 
ATOM     14  C17 UNL     1     -85.898  67.501 -11.337  0.00  0.00    +0.015 C 
BRANCH   9  15
ATOM     15  C7  UNL     1     -90.566  67.342 -11.111  0.00  0.00    +0.108 C 
ATOM     16  C8  UNL     1     -91.546  66.173 -11.355  0.00  0.00    +0.024 C 
ATOM     17  C9  UNL     1     -92.924  66.361 -10.695  0.00  0.00    +0.002 C 
ATOM     18  C10 UNL     1     -92.969  65.781  -9.272  0.00  0.00    +0.000 C 
ATOM     19  C11 UNL     1     -92.239  66.638  -8.229  0.00  0.00    +0.000 C 
ATOM     20  C12 UNL     1     -90.756  66.872  -8.552  0.00  0.00    +0.002 C 
ATOM     21  C13 UNL     1     -90.558  67.912  -9.670  0.00  0.00    +0.024 C 
ENDBRANCH   9  15
ENDBRANCH   4   7
BRANCH   1  23
ATOM     22  C1  UNL     1     -84.358  59.682 -11.915  0.00  0.00    +0.253 C 
ATOM     23  O1  UNL     1     -84.739  60.588 -10.883  0.00  0.00    -0.468 OA
ENDBRANCH   1  23
BRANCH   6  24
ATOM     24  O3  UNL     1     -87.425  60.754 -10.382  0.00  0.00    -0.472 OA
BRANCH  24  25
ATOM     25  C20 UNL     1     -88.434  60.031 -11.090  0.00  0.00    +0.206 C 
BRANCH  25  26
ATOM     26  C21 UNL     1     -89.789  60.131 -10.376  0.00  0.00    +0.051 C 
BRANCH  26  27
ATOM     27  C22 UNL     1     -90.878  60.618 -11.338  0.00  0.00    +0.051 C 
BRANCH  27  28
ATOM     28  C23 UNL     1     -91.675  61.776 -10.730  0.00  0.00    +0.206 C 
BRANCH  28  29
ATOM     29  O4  UNL     1     -92.301  61.368  -9.513  0.00  0.00    -0.475 OA
BRANCH  29  30
ATOM     30  C24 UNL     1     -92.417  62.157  -8.356  0.00  0.00    +0.139 A 
ATOM     31  C25 UNL     1     -93.656  62.446  -7.752  0.00  0.00    +0.037 A 
ATOM     32  C26 UNL     1     -93.713  63.239  -6.601  0.00  0.00    +0.006 A 
ATOM     33  C27 UNL     1     -92.538  63.754  -6.028  0.00  0.00    +0.040 A 
ATOM     34  C29 UNL     1     -91.303  63.458  -6.631  0.00  0.00    +0.006 A 
ATOM     35  C30 UNL     1     -91.248  62.667  -7.783  0.00  0.00    +0.037 A 
BRANCH  33  36
ATOM     36  C28 UNL     1     -92.600  64.594  -4.806  0.00  0.00    +0.208 A 
ATOM     37  N3  UNL     1     -92.060  65.826  -4.677  0.00  0.00    -0.106 NA
ATOM     38  N4  UNL     1     -92.335  66.210  -3.441  0.00  0.00    -0.021 NA
ATOM     39  N5  UNL     1     -93.020  65.262  -2.825  0.00  0.00    -0.021 NA
ATOM     40  N6  UNL     1     -93.200  64.242  -3.648  0.00  0.00    -0.106 NA
ENDBRANCH  33  36
ENDBRANCH  29  30
ENDBRANCH  28  29
ENDBRANCH  27  28
ENDBRANCH  26  27
ENDBRANCH  25  26
ENDBRANCH  24  25
ENDBRANCH   6  24
TORSDOF 11
ENDMDL
MODEL 6
REMARK VINA RESULT:      -6.3      3.798      7.264
REMARK  Name = ./data/4wxx_site_bc02/pdb/l0c0.pdb
REMARK  11 active torsions:
REMARK  status: ('A' for Active; 'I' for Inactive)
REMARK    1  A    between atoms: O1_2  and  C2_3
REMARK    2  A    between atoms: C5_6  and  C6_7
REMARK    3  A    between atoms: N2_9  and  C7_10
REMARK    4  A    between atoms: C19_23  and  O3_24
REMARK    5  A    between atoms: O3_24  and  C20_25
REMARK    6  A    between atoms: C20_25  and  C21_26
REMARK    7  A    between atoms: C21_26  and  C22_27
REMARK    8  A    between atoms: C22_27  and  C23_28
REMARK    9  A    between atoms: C23_28  and  O4_29
REMARK   10  A    between atoms: O4_29  and  C24_30
REMARK   11  A    between atoms: C27_33  and  C28_34
REMARK                            x       y       z     vdW  Elec       q    Type
REMARK                         _______ _______ _______ _____ _____    ______ ____
ROOT
ATOM      1  C2  UNL     1     -91.077  59.803  -8.959  0.00  0.00    +0.172 A 
ATOM      2  C3  UNL     1     -90.028  60.435  -8.266  0.00  0.00    +0.040 A 
ATOM      3  C4  UNL     1     -90.119  61.783  -7.911  0.00  0.00    +0.005 A 
ATOM      4  C5  UNL     1     -91.259  62.534  -8.242  0.00  0.00    +0.019 A 
ATOM      5  C18 UNL     1     -92.294  61.902  -8.958  0.00  0.00    +0.041 A 
ATOM      6  C19 UNL     1     -92.221  60.538  -9.299  0.00  0.00    +0.172 A 
ENDROOT
BRANCH   4   7
ATOM      7  C6  UNL     1     -91.430  63.962  -7.843  0.00  0.00    +0.086 C 
ATOM      8  N1  UNL     1     -90.835  64.907  -8.501  0.00  0.00    -0.171 NA
ATOM      9  N2  UNL     1     -91.172  66.151  -7.972  0.00  0.00    -0.222 N 
ATOM     10  C14 UNL     1     -91.977  66.003  -6.973  0.00  0.00    +0.257 C 
ATOM     11  O2  UNL     1     -92.486  67.071  -6.235  0.00  0.00    -0.270 OA
ATOM     12  C15 UNL     1     -92.288  64.551  -6.732  0.00  0.00    +0.110 C 
ATOM     13  C16 UNL     1     -91.809  64.137  -5.332  0.00  0.00    +0.015 C 
ATOM     14  C17 UNL     1     -93.792  64.304  -6.950  0.00  0.00    +0.015 C 
BRANCH   9  15
ATOM     15  C7  UNL     1     -90.681  67.418  -8.529  0.00  0.00    +0.108 C 
ATOM     16  C8  UNL     1     -89.223  67.235  -9.006  0.00  0.00    +0.024 C 
ATOM     17  C9  UNL     1     -88.710  68.372  -9.907  0.00  0.00    +0.002 C 
ATOM     18  C10 UNL     1     -88.975  68.096 -11.396  0.00  0.00    +0.000 C 
ATOM     19  C11 UNL     1     -90.438  68.290 -11.812  0.00  0.00    +0.000 C 
ATOM     20  C12 UNL     1     -91.424  67.409 -11.030  0.00  0.00    +0.002 C 
ATOM     21  C13 UNL     1     -91.671  67.935  -9.603  0.00  0.00    +0.024 C 
ENDBRANCH   9  15
ENDBRANCH   4   7
BRANCH   1  23
ATOM     22  C1  UNL     1     -90.372  57.958 -10.498  0.00  0.00    +0.253 C 
ATOM     23  O1  UNL     1     -91.020  58.450  -9.328  0.00  0.00    -0.468 OA
ENDBRANCH   1  23
BRANCH   6  24
ATOM     24  O3  UNL     1     -93.265  59.878  -9.972  0.00  0.00    -0.472 OA
BRANCH  24  25
ATOM     25  C20 UNL     1     -93.514  59.942 -11.379  0.00  0.00    +0.206 C 
BRANCH  25  26
ATOM     26  C21 UNL     1     -94.065  61.318 -11.778  0.00  0.00    +0.051 C 
BRANCH  26  27
ATOM     27  C22 UNL     1     -93.882  61.565 -13.279  0.00  0.00    +0.051 C 
BRANCH  27  28
ATOM     28  C23 UNL     1     -92.460  62.041 -13.592  0.00  0.00    +0.206 C 
BRANCH  28  29
ATOM     29  O4  UNL     1     -91.909  62.737 -12.472  0.00  0.00    -0.475 OA
BRANCH  29  30
ATOM     30  C24 UNL     1     -90.568  62.671 -12.057  0.00  0.00    +0.139 A 
ATOM     31  C25 UNL     1     -89.854  61.460 -11.974  0.00  0.00    +0.037 A 
ATOM     32  C26 UNL     1     -88.521  61.453 -11.552  0.00  0.00    +0.006 A 
ATOM     33  C27 UNL     1     -87.872  62.652 -11.210  0.00  0.00    +0.040 A 
ATOM     34  C29 UNL     1     -88.587  63.859 -11.299  0.00  0.00    +0.006 A 
ATOM     35  C30 UNL     1     -89.922  63.864 -11.719  0.00  0.00    +0.037 A 
BRANCH  33  36
ATOM     36  C28 UNL     1     -86.457  62.643 -10.764  0.00  0.00    +0.208 A 
ATOM     37  N3  UNL     1     -85.818  63.678 -10.174  0.00  0.00    -0.106 NA
ATOM     38  N4  UNL     1     -84.584  63.256  -9.950  0.00  0.00    -0.021 NA
ATOM     39  N5  UNL     1     -84.458  62.011 -10.378  0.00  0.00    -0.021 NA
ATOM     40  N6  UNL     1     -85.606  61.602 -10.891  0.00  0.00    -0.106 NA
ENDBRANCH  33  36
ENDBRANCH  29  30
ENDBRANCH  28  29
ENDBRANCH  27  28
ENDBRANCH  26  27
ENDBRANCH  25  26
ENDBRANCH  24  25
ENDBRANCH   6  24
TORSDOF 11
ENDMDL
MODEL 7
REMARK VINA RESULT:      -6.3      3.234      5.506
REMARK  Name = ./data/4wxx_site_bc02/pdb/l0c0.pdb
REMARK  11 active torsions:
REMARK  status: ('A' for Active; 'I' for Inactive)
REMARK    1  A    between atoms: O1_2  and  C2_3
REMARK    2  A    between atoms: C5_6  and  C6_7
REMARK    3  A    between atoms: N2_9  and  C7_10
REMARK    4  A    between atoms: C19_23  and  O3_24
REMARK    5  A    between atoms: O3_24  and  C20_25
REMARK    6  A    between atoms: C20_25  and  C21_26
REMARK    7  A    between atoms: C21_26  and  C22_27
REMARK    8  A    between atoms: C22_27  and  C23_28
REMARK    9  A    between atoms: C23_28  and  O4_29
REMARK   10  A    between atoms: O4_29  and  C24_30
REMARK   11  A    between atoms: C27_33  and  C28_34
REMARK                            x       y       z     vdW  Elec       q    Type
REMARK                         _______ _______ _______ _____ _____    ______ ____
ROOT
ATOM      1  C2  UNL     1     -87.396  69.953  -8.215  0.00  0.00    +0.172 A 
ATOM      2  C3  UNL     1     -88.539  70.382  -7.514  0.00  0.00    +0.040 A 
ATOM      3  C4  UNL     1     -89.790  69.817  -7.777  0.00  0.00    +0.005 A 
ATOM      4  C5  UNL     1     -89.931  68.813  -8.749  0.00  0.00    +0.019 A 
ATOM      5  C18 UNL     1     -88.788  68.408  -9.464  0.00  0.00    +0.041 A 
ATOM      6  C19 UNL     1     -87.520  68.953  -9.189  0.00  0.00    +0.172 A 
ENDROOT
BRANCH   4   7
ATOM      7  C6  UNL     1     -91.233  68.142  -9.034  0.00  0.00    +0.086 C 
ATOM      8  N1  UNL     1     -91.536  67.019  -8.465  0.00  0.00    -0.171 NA
ATOM      9  N2  UNL     1     -92.808  66.607  -8.853  0.00  0.00    -0.222 N 
ATOM     10  C14 UNL     1     -93.318  67.462  -9.675  0.00  0.00    +0.257 C 
ATOM     11  O2  UNL     1     -94.584  67.319 -10.242  0.00  0.00    -0.270 OA
ATOM     12  C15 UNL     1     -92.379  68.612  -9.919  0.00  0.00    +0.110 C 
ATOM     13  C16 UNL     1     -91.994  68.668 -11.405  0.00  0.00    +0.015 C 
ATOM     14  C17 UNL     1     -93.021  69.917  -9.415  0.00  0.00    +0.015 C 
BRANCH   9  15
ATOM     15  C7  UNL     1     -93.445  65.385  -8.344  0.00  0.00    +0.108 C 
ATOM     16  C8  UNL     1     -92.364  64.306  -8.109  0.00  0.00    +0.024 C 
ATOM     17  C9  UNL     1     -92.843  63.110  -7.268  0.00  0.00    +0.002 C 
ATOM     18  C10 UNL     1     -92.609  63.327  -5.764  0.00  0.00    +0.000 C 
ATOM     19  C11 UNL     1     -93.595  64.307  -5.118  0.00  0.00    +0.000 C 
ATOM     20  C12 UNL     1     -93.589  65.703  -5.759  0.00  0.00    +0.002 C 
ATOM     21  C13 UNL     1     -94.322  65.725  -7.114  0.00  0.00    +0.024 C 
ENDBRANCH   9  15
ENDBRANCH   4   7
BRANCH   1  23
ATOM     22  C1  UNL     1     -85.748  71.167  -6.774  0.00  0.00    +0.253 C 
ATOM     23  O1  UNL     1     -86.124  70.496  -7.972  0.00  0.00    -0.468 OA
ENDBRANCH   1  23
BRANCH   6  24
ATOM     24  O3  UNL     1     -86.359  68.527  -9.860  0.00  0.00    -0.472 OA
BRANCH  24  25
ATOM     25  C20 UNL     1     -86.324  67.592 -10.941  0.00  0.00    +0.206 C 
BRANCH  25  26
ATOM     26  C21 UNL     1     -85.601  68.184 -12.159  0.00  0.00    +0.051 C 
BRANCH  26  27
ATOM     27  C22 UNL     1     -86.495  68.136 -13.402  0.00  0.00    +0.051 C 
BRANCH  27  28
ATOM     28  C23 UNL     1     -87.904  68.652 -13.089  0.00  0.00    +0.206 C 
BRANCH  28  29
ATOM     29  O4  UNL     1     -87.968  70.067 -13.270  0.00  0.00    -0.475 OA
BRANCH  29  30
ATOM     30  C24 UNL     1     -87.917  71.019 -12.238  0.00  0.00    +0.139 A 
ATOM     31  C25 UNL     1     -86.719  71.635 -11.827  0.00  0.00    +0.037 A 
ATOM     32  C26 UNL     1     -86.726  72.576 -10.793  0.00  0.00    +0.006 A 
ATOM     33  C27 UNL     1     -87.927  72.925 -10.151  0.00  0.00    +0.040 A 
ATOM     34  C29 UNL     1     -89.121  72.311 -10.567  0.00  0.00    +0.006 A 
ATOM     35  C30 UNL     1     -89.112  71.369 -11.601  0.00  0.00    +0.037 A 
BRANCH  33  36
ATOM     36  C28 UNL     1     -87.933  73.924  -9.055  0.00  0.00    +0.208 A 
ATOM     37  N3  UNL     1     -87.359  75.147  -9.110  0.00  0.00    -0.106 NA
ATOM     38  N4  UNL     1     -87.589  75.704  -7.931  0.00  0.00    -0.021 NA
ATOM     39  N5  UNL     1     -88.278  74.868  -7.174  0.00  0.00    -0.021 NA
ATOM     40  N6  UNL     1     -88.508  73.751  -7.844  0.00  0.00    -0.106 NA
ENDBRANCH  33  36
ENDBRANCH  29  30
ENDBRANCH  28  29
ENDBRANCH  27  28
ENDBRANCH  26  27
ENDBRANCH  25  26
ENDBRANCH  24  25
ENDBRANCH   6  24
TORSDOF 11
ENDMDL
MODEL 8
REMARK VINA RESULT:      -6.1      3.538      6.175
REMARK  Name = ./data/4wxx_site_bc02/pdb/l0c0.pdb
REMARK  11 active torsions:
REMARK  status: ('A' for Active; 'I' for Inactive)
REMARK    1  A    between atoms: O1_2  and  C2_3
REMARK    2  A    between atoms: C5_6  and  C6_7
REMARK    3  A    between atoms: N2_9  and  C7_10
REMARK    4  A    between atoms: C19_23  and  O3_24
REMARK    5  A    between atoms: O3_24  and  C20_25
REMARK    6  A    between atoms: C20_25  and  C21_26
REMARK    7  A    between atoms: C21_26  and  C22_27
REMARK    8  A    between atoms: C22_27  and  C23_28
REMARK    9  A    between atoms: C23_28  and  O4_29
REMARK   10  A    between atoms: O4_29  and  C24_30
REMARK   11  A    between atoms: C27_33  and  C28_34
REMARK                            x       y       z     vdW  Elec       q    Type
REMARK                         _______ _______ _______ _____ _____    ______ ____
ROOT
ATOM      1  C2  UNL     1     -86.373  70.782  -8.869  0.00  0.00    +0.172 A 
ATOM      2  C3  UNL     1     -87.146  70.387  -7.762  0.00  0.00    +0.040 A 
ATOM      3  C4  UNL     1     -88.219  69.506  -7.919  0.00  0.00    +0.005 A 
ATOM      4  C5  UNL     1     -88.548  68.999  -9.187  0.00  0.00    +0.019 A 
ATOM      5  C18 UNL     1     -87.786  69.418 -10.294  0.00  0.00    +0.041 A 
ATOM      6  C19 UNL     1     -86.688  70.286 -10.142  0.00  0.00    +0.172 A 
ENDROOT
BRANCH   4   7
ATOM      7  C6  UNL     1     -89.651  68.017  -9.404  0.00  0.00    +0.086 C 
ATOM      8  N1  UNL     1     -90.326  67.550  -8.401  0.00  0.00    -0.171 NA
ATOM      9  N2  UNL     1     -91.321  66.686  -8.849  0.00  0.00    -0.222 N 
ATOM     10  C14 UNL     1     -91.281  66.594 -10.137  0.00  0.00    +0.257 C 
ATOM     11  O2  UNL     1     -92.153  65.796 -10.876  0.00  0.00    -0.270 OA
ATOM     12  C15 UNL     1     -90.192  67.458 -10.712  0.00  0.00    +0.110 C 
ATOM     13  C16 UNL     1     -89.166  66.586 -11.452  0.00  0.00    +0.015 C 
ATOM     14  C17 UNL     1     -90.816  68.543 -11.608  0.00  0.00    +0.015 C 
BRANCH   9  15
ATOM     15  C7  UNL     1     -92.274  66.025  -7.947  0.00  0.00    +0.108 C 
ATOM     16  C8  UNL     1     -91.601  64.791  -7.307  0.00  0.00    +0.024 C 
ATOM     17  C9  UNL     1     -92.363  64.215  -6.101  0.00  0.00    +0.002 C 
ATOM     18  C10 UNL     1     -91.912  64.847  -4.774  0.00  0.00    +0.000 C 
ATOM     19  C11 UNL     1     -92.438  66.271  -4.555  0.00  0.00    +0.000 C 
ATOM     20  C12 UNL     1     -92.030  67.256  -5.660  0.00  0.00    +0.002 C 
ATOM     21  C13 UNL     1     -92.851  67.060  -6.949  0.00  0.00    +0.024 C 
ENDBRANCH   9  15
ENDBRANCH   4   7
BRANCH   1  23
ATOM     22  C1  UNL     1     -85.403  73.076  -8.619  0.00  0.00    +0.253 C 
ATOM     23  O1  UNL     1     -85.286  71.662  -8.746  0.00  0.00    -0.468 OA
ENDBRANCH   1  23
BRANCH   6  24
ATOM     24  O3  UNL     1     -85.886  70.679 -11.230  0.00  0.00    -0.472 OA
BRANCH  24  25
ATOM     25  C20 UNL     1     -86.366  71.257 -12.445  0.00  0.00    +0.206 C 
BRANCH  25  26
ATOM     26  C21 UNL     1     -86.667  72.752 -12.263  0.00  0.00    +0.051 C 
BRANCH  26  27
ATOM     27  C22 UNL     1     -88.020  73.117 -12.884  0.00  0.00    +0.051 C 
BRANCH  27  28
ATOM     28  C23 UNL     1     -89.120  72.161 -12.411  0.00  0.00    +0.206 C 
BRANCH  28  29
ATOM     29  O4  UNL     1     -90.025  72.836 -11.536  0.00  0.00    -0.475 OA
BRANCH  29  30
ATOM     30  C24 UNL     1     -89.965  72.813 -10.132  0.00  0.00    +0.139 A 
ATOM     31  C25 UNL     1     -89.086  73.628  -9.393  0.00  0.00    +0.037 A 
ATOM     32  C26 UNL     1     -89.067  73.564  -7.997  0.00  0.00    +0.006 A 
ATOM     33  C27 UNL     1     -89.926  72.689  -7.309  0.00  0.00    +0.040 A 
ATOM     34  C29 UNL     1     -90.805  71.880  -8.051  0.00  0.00    +0.006 A 
ATOM     35  C30 UNL     1     -90.821  71.945  -9.448  0.00  0.00    +0.037 A 
BRANCH  33  36
ATOM     36  C28 UNL     1     -89.906  72.622  -5.827  0.00  0.00    +0.208 A 
ATOM     37  N3  UNL     1     -88.965  71.994  -5.087  0.00  0.00    -0.106 NA
ATOM     38  N4  UNL     1     -89.327  72.169  -3.826  0.00  0.00    -0.021 NA
ATOM     39  N5  UNL     1     -90.442  72.878  -3.780  0.00  0.00    -0.021 NA
ATOM     40  N6  UNL     1     -90.828  73.175  -5.009  0.00  0.00    -0.106 NA
ENDBRANCH  33  36
ENDBRANCH  29  30
ENDBRANCH  28  29
ENDBRANCH  27  28
ENDBRANCH  26  27
ENDBRANCH  25  26
ENDBRANCH  24  25
ENDBRANCH   6  24
TORSDOF 11
ENDMDL
MODEL 9
REMARK VINA RESULT:      -6.1      2.781      5.750
REMARK  Name = ./data/4wxx_site_bc02/pdb/l0c0.pdb
REMARK  11 active torsions:
REMARK  status: ('A' for Active; 'I' for Inactive)
REMARK    1  A    between atoms: O1_2  and  C2_3
REMARK    2  A    between atoms: C5_6  and  C6_7
REMARK    3  A    between atoms: N2_9  and  C7_10
REMARK    4  A    between atoms: C19_23  and  O3_24
REMARK    5  A    between atoms: O3_24  and  C20_25
REMARK    6  A    between atoms: C20_25  and  C21_26
REMARK    7  A    between atoms: C21_26  and  C22_27
REMARK    8  A    between atoms: C22_27  and  C23_28
REMARK    9  A    between atoms: C23_28  and  O4_29
REMARK   10  A    between atoms: O4_29  and  C24_30
REMARK   11  A    between atoms: C27_33  and  C28_34
REMARK                            x       y       z     vdW  Elec       q    Type
REMARK                         _______ _______ _______ _____ _____    ______ ____
ROOT
ATOM      1  C2  UNL     1     -87.390  69.859  -8.413  0.00  0.00    +0.172 A 
ATOM      2  C3  UNL     1     -88.492  70.144  -7.585  0.00  0.00    +0.040 A 
ATOM      3  C4  UNL     1     -89.587  69.279  -7.534  0.00  0.00    +0.005 A 
ATOM      4  C5  UNL     1     -89.612  68.109  -8.311  0.00  0.00    +0.019 A 
ATOM      5  C18 UNL     1     -88.518  67.843  -9.156  0.00  0.00    +0.041 A 
ATOM      6  C19 UNL     1     -87.399  68.697  -9.196  0.00  0.00    +0.172 A 
ENDROOT
BRANCH   4   7
ATOM      7  C6  UNL     1     -90.733  67.126  -8.257  0.00  0.00    +0.086 C 
ATOM      8  N1  UNL     1     -90.583  65.926  -8.721  0.00  0.00    -0.171 NA
ATOM      9  N2  UNL     1     -91.745  65.183  -8.527  0.00  0.00    -0.222 N 
ATOM     10  C14 UNL     1     -92.642  65.908  -7.945  0.00  0.00    +0.257 C 
ATOM     11  O2  UNL     1     -93.915  65.440  -7.624  0.00  0.00    -0.270 OA
ATOM     12  C15 UNL     1     -92.124  67.292  -7.661  0.00  0.00    +0.110 C 
ATOM     13  C16 UNL     1     -92.970  68.332  -8.413  0.00  0.00    +0.015 C 
ATOM     14  C17 UNL     1     -92.095  67.528  -6.140  0.00  0.00    +0.015 C 
BRANCH   9  15
ATOM     15  C7  UNL     1     -91.869  63.772  -8.918  0.00  0.00    +0.108 C 
ATOM     16  C8  UNL     1     -90.967  63.500 -10.142  0.00  0.00    +0.024 C 
ATOM     17  C9  UNL     1     -90.744  62.007 -10.438  0.00  0.00    +0.002 C 
ATOM     18  C10 UNL     1     -89.509  61.450  -9.710  0.00  0.00    +0.000 C 
ATOM     19  C11 UNL     1     -89.724  61.224  -8.208  0.00  0.00    +0.000 C 
ATOM     20  C12 UNL     1     -90.136  62.493  -7.446  0.00  0.00    +0.002 C 
ATOM     21  C13 UNL     1     -91.611  62.866  -7.688  0.00  0.00    +0.024 C 
ENDBRANCH   9  15
ENDBRANCH   4   7
BRANCH   1  23
ATOM     22  C1  UNL     1     -86.225  72.028  -7.961  0.00  0.00    +0.253 C 
ATOM     23  O1  UNL     1     -86.271  70.704  -8.485  0.00  0.00    -0.468 OA
ENDBRANCH   1  23
BRANCH   6  24
ATOM     24  O3  UNL     1     -86.276  68.423  -9.999  0.00  0.00    -0.472 OA
BRANCH  24  25
ATOM     25  C20 UNL     1     -86.203  67.406 -11.001  0.00  0.00    +0.206 C 
BRANCH  25  26
ATOM     26  C21 UNL     1     -85.761  67.992 -12.350  0.00  0.00    +0.051 C 
BRANCH  26  27
ATOM     27  C22 UNL     1     -86.683  67.517 -13.479  0.00  0.00    +0.051 C 
BRANCH  27  28
ATOM     28  C23 UNL     1     -88.115  67.316 -12.975  0.00  0.00    +0.206 C 
BRANCH  28  29
ATOM     29  O4  UNL     1     -88.922  68.449 -13.299  0.00  0.00    -0.475 OA
BRANCH  29  30
ATOM     30  C24 UNL     1     -89.325  69.444 -12.392  0.00  0.00    +0.139 A 
ATOM     31  C25 UNL     1     -88.518  70.552 -12.069  0.00  0.00    +0.037 A 
ATOM     32  C26 UNL     1     -88.968  71.513 -11.158  0.00  0.00    +0.006 A 
ATOM     33  C27 UNL     1     -90.232  71.390 -10.555  0.00  0.00    +0.040 A 
ATOM     34  C29 UNL     1     -91.035  70.285 -10.884  0.00  0.00    +0.006 A 
ATOM     35  C30 UNL     1     -90.583  69.324 -11.794  0.00  0.00    +0.037 A 
BRANCH  33  36
ATOM     36  C28 UNL     1     -90.709  72.411  -9.589  0.00  0.00    +0.208 A 
ATOM     37  N3  UNL     1     -90.174  73.641  -9.426  0.00  0.00    -0.106 NA
ATOM     38  N4  UNL     1     -90.885  74.217  -8.470  0.00  0.00    -0.021 NA
ATOM     39  N5  UNL     1     -91.826  73.385  -8.057  0.00  0.00    -0.021 NA
ATOM     40  N6  UNL     1     -91.742  72.252  -8.733  0.00  0.00    -0.106 NA
ENDBRANCH  33  36
ENDBRANCH  29  30
ENDBRANCH  28  29
ENDBRANCH  27  28
ENDBRANCH  26  27
ENDBRANCH  25  26
ENDBRANCH  24  25
ENDBRANCH   6  24
TORSDOF 11
ENDMDL
