MODEL 1
REMARK VINA RESULT:      -6.8      0.000      0.000
REMARK  Name = ./data/4wxx_site_bc02/pdb/l0c2.pdb
REMARK  11 active torsions:
REMARK  status: ('A' for Active; 'I' for Inactive)
REMARK    1  A    between atoms: O1_2  and  C2_3
REMARK    2  A    between atoms: C5_6  and  C6_7
REMARK    3  A    between atoms: N2_9  and  C7_10
REMARK    4  A    between atoms: C19_23  and  O3_24
REMARK    5  A    between atoms: O3_24  and  C20_25
REMARK    6  A    between atoms: C20_25  and  C21_26
REMARK    7  A    between atoms: C21_26  and  C22_27
REMARK    8  A    between atoms: C22_27  and  C23_28
REMARK    9  A    between atoms: C23_28  and  O4_29
REMARK   10  A    between atoms: O4_29  and  C24_30
REMARK   11  A    between atoms: C27_33  and  C28_34
REMARK                            x       y       z     vdW  Elec       q    Type
REMARK                         _______ _______ _______ _____ _____    ______ ____
ROOT
ATOM      1  C2  UNL     1     -44.067  31.140  -5.847  0.00  0.00    +0.172 A 
ATOM      2  C3  UNL     1     -42.774  31.628  -5.593  0.00  0.00    +0.040 A 
ATOM      3  C4  UNL     1     -41.903  31.910  -6.647  0.00  0.00    +0.005 A 
ATOM      4  C5  UNL     1     -42.295  31.702  -7.980  0.00  0.00    +0.019 A 
ATOM      5  C18 UNL     1     -43.591  31.208  -8.226  0.00  0.00    +0.041 A 
ATOM      6  C19 UNL     1     -44.481  30.936  -7.169  0.00  0.00    +0.172 A 
ENDROOT
BRANCH   4   7
ATOM      7  C6  UNL     1     -41.390  31.992  -9.133  0.00  0.00    +0.086 C 
ATOM      8  N1  UNL     1     -40.982  33.197  -9.376  0.00  0.00    -0.171 NA
ATOM      9  N2  UNL     1     -40.128  33.204 -10.476  0.00  0.00    -0.222 N 
ATOM     10  C14 UNL     1     -39.976  32.000 -10.925  0.00  0.00    +0.257 C 
ATOM     11  O2  UNL     1     -39.152  31.682 -12.003  0.00  0.00    -0.270 OA
ATOM     12  C15 UNL     1     -40.793  31.017 -10.139  0.00  0.00    +0.110 C 
ATOM     13  C16 UNL     1     -39.869  29.978  -9.482  0.00  0.00    +0.015 C 
ATOM     14  C17 UNL     1     -41.850  30.383 -11.060  0.00  0.00    +0.015 C 
BRANCH   9  15
ATOM     15  C7  UNL     1     -39.487  34.430 -10.975  0.00  0.00    +0.108 C 
ATOM     16  C8  UNL     1     -37.955  34.235 -11.026  0.00  0.00    +0.024 C 
ATOM     17  C9  UNL     1     -37.167  35.548 -11.103  0.00  0.00    +0.002 C 
ATOM     18  C10 UNL     1     -37.520  36.411 -12.325  0.00  0.00    +0.000 C 
ATOM     19  C11 UNL     1     -38.865  37.135 -12.155  0.00  0.00    +0.000 C 
ATOM     20  C12 UNL     1     -40.087  36.332 -12.639  0.00  0.00    +0.002 C 
ATOM     21  C13 UNL     1     -40.063  34.818 -12.357  0.00  0.00    +0.024 C 
ENDBRANCH   9  15
ENDBRANCH   4   7
BRANCH   1  23
ATOM     22  C1  UNL     1     -44.733  31.120  -3.433  0.00  0.00    +0.253 C 
ATOM     23  O1  UNL     1     -44.970  30.849  -4.811  0.00  0.00    -0.468 OA
ENDBRANCH   1  23
BRANCH   6  24
ATOM     24  O3  UNL     1     -45.787  30.461  -7.386  0.00  0.00    -0.472 OA
BRANCH  24  25
ATOM     25  C20 UNL     1     -46.844  31.182  -8.020  0.00  0.00    +0.206 C 
BRANCH  25  26
ATOM     26  C21 UNL     1     -47.630  32.006  -6.990  0.00  0.00    +0.051 C 
BRANCH  26  27
ATOM     27  C22 UNL     1     -47.578  33.514  -7.282  0.00  0.00    +0.051 C 
BRANCH  27  28
ATOM     28  C23 UNL     1     -47.237  34.341  -6.036  0.00  0.00    +0.206 C 
BRANCH  28  29
ATOM     29  O4  UNL     1     -46.073  33.819  -5.396  0.00  0.00    -0.475 OA
BRANCH  29  30
ATOM     30  C24 UNL     1     -44.864  34.510  -5.212  0.00  0.00    +0.139 A 
ATOM     31  C25 UNL     1     -44.325  34.781  -3.940  0.00  0.00    +0.037 A 
ATOM     32  C26 UNL     1     -43.115  35.470  -3.818  0.00  0.00    +0.006 A 
ATOM     33  C27 UNL     1     -42.416  35.899  -4.960  0.00  0.00    +0.040 A 
ATOM     34  C29 UNL     1     -42.960  35.626  -6.227  0.00  0.00    +0.006 A 
ATOM     35  C30 UNL     1     -44.170  34.938  -6.347  0.00  0.00    +0.037 A 
BRANCH  33  36
ATOM     36  C28 UNL     1     -41.127  36.623  -4.830  0.00  0.00    +0.208 A 
ATOM     37  N3  UNL     1     -40.988  37.966  -4.777  0.00  0.00    -0.106 NA
ATOM     38  N4  UNL     1     -39.690  38.189  -4.666  0.00  0.00    -0.021 NA
ATOM     39  N5  UNL     1     -39.044  37.037  -4.648  0.00  0.00    -0.021 NA
ATOM     40  N6  UNL     1     -39.910  36.043  -4.749  0.00  0.00    -0.106 NA
ENDBRANCH  33  36
ENDBRANCH  29  30
ENDBRANCH  28  29
ENDBRANCH  27  28
ENDBRANCH  26  27
ENDBRANCH  25  26
ENDBRANCH  24  25
ENDBRANCH   6  24
TORSDOF 11
ENDMDL
MODEL 2
REMARK VINA RESULT:      -6.7      2.913      6.488
REMARK  Name = ./data/4wxx_site_bc02/pdb/l0c2.pdb
REMARK  11 active torsions:
REMARK  status: ('A' for Active; 'I' for Inactive)
REMARK    1  A    between atoms: O1_2  and  C2_3
REMARK    2  A    between atoms: C5_6  and  C6_7
REMARK    3  A    between atoms: N2_9  and  C7_10
REMARK    4  A    between atoms: C19_23  and  O3_24
REMARK    5  A    between atoms: O3_24  and  C20_25
REMARK    6  A    between atoms: C20_25  and  C21_26
REMARK    7  A    between atoms: C21_26  and  C22_27
REMARK    8  A    between atoms: C22_27  and  C23_28
REMARK    9  A    between atoms: C23_28  and  O4_29
REMARK   10  A    between atoms: O4_29  and  C24_30
REMARK   11  A    between atoms: C27_33  and  C28_34
REMARK                            x       y       z     vdW  Elec       q    Type
REMARK                         _______ _______ _______ _____ _____    ______ ____
ROOT
ATOM      1  C2  UNL     1     -45.772  34.277  -6.462  0.00  0.00    +0.172 A 
ATOM      2  C3  UNL     1     -45.416  35.136  -5.409  0.00  0.00    +0.040 A 
ATOM      3  C4  UNL     1     -44.075  35.414  -5.142  0.00  0.00    +0.005 A 
ATOM      4  C5  UNL     1     -43.052  34.833  -5.912  0.00  0.00    +0.019 A 
ATOM      5  C18 UNL     1     -43.418  33.969  -6.964  0.00  0.00    +0.041 A 
ATOM      6  C19 UNL     1     -44.769  33.697  -7.249  0.00  0.00    +0.172 A 
ENDROOT
BRANCH   4   7
ATOM      7  C6  UNL     1     -41.606  35.106  -5.655  0.00  0.00    +0.086 C 
ATOM      8  N1  UNL     1     -40.682  34.392  -6.217  0.00  0.00    -0.171 NA
ATOM      9  N2  UNL     1     -39.422  34.860  -5.848  0.00  0.00    -0.222 N 
ATOM     10  C14 UNL     1     -39.543  35.882  -5.066  0.00  0.00    +0.257 C 
ATOM     11  O2  UNL     1     -38.455  36.589  -4.554  0.00  0.00    -0.270 OA
ATOM     12  C15 UNL     1     -40.985  36.195  -4.792  0.00  0.00    +0.110 C 
ATOM     13  C16 UNL     1     -41.316  37.611  -5.293  0.00  0.00    +0.015 C 
ATOM     14  C17 UNL     1     -41.270  36.007  -3.291  0.00  0.00    +0.015 C 
BRANCH   9  15
ATOM     15  C7  UNL     1     -38.177  34.261  -6.350  0.00  0.00    +0.108 C 
ATOM     16  C8  UNL     1     -37.760  33.084  -5.439  0.00  0.00    +0.024 C 
ATOM     17  C9  UNL     1     -36.291  32.673  -5.594  0.00  0.00    +0.002 C 
ATOM     18  C10 UNL     1     -35.913  32.252  -7.023  0.00  0.00    +0.000 C 
ATOM     19  C11 UNL     1     -35.758  33.458  -7.963  0.00  0.00    +0.000 C 
ATOM     20  C12 UNL     1     -37.058  33.890  -8.665  0.00  0.00    +0.002 C 
ATOM     21  C13 UNL     1     -38.346  33.816  -7.822  0.00  0.00    +0.024 C 
ENDBRANCH   9  15
ENDBRANCH   4   7
BRANCH   1  23
ATOM     22  C1  UNL     1     -48.046  34.910  -7.299  0.00  0.00    +0.253 C 
ATOM     23  O1  UNL     1     -47.111  33.979  -6.761  0.00  0.00    -0.468 OA
ENDBRANCH   1  23
BRANCH   6  24
ATOM     24  O3  UNL     1     -45.162  32.855  -8.305  0.00  0.00    -0.472 OA
BRANCH  24  25
ATOM     25  C20 UNL     1     -45.077  31.430  -8.312  0.00  0.00    +0.206 C 
BRANCH  25  26
ATOM     26  C21 UNL     1     -45.044  30.897  -9.752  0.00  0.00    +0.051 C 
BRANCH  26  27
ATOM     27  C22 UNL     1     -43.722  30.190 -10.086  0.00  0.00    +0.051 C 
BRANCH  27  28
ATOM     28  C23 UNL     1     -43.458  30.124 -11.596  0.00  0.00    +0.206 C 
BRANCH  28  29
ATOM     29  O4  UNL     1     -42.066  30.292 -11.864  0.00  0.00    -0.475 OA
BRANCH  29  30
ATOM     30  C24 UNL     1     -41.397  31.523 -11.956  0.00  0.00    +0.139 A 
ATOM     31  C25 UNL     1     -41.689  32.480 -12.946  0.00  0.00    +0.037 A 
ATOM     32  C26 UNL     1     -40.994  33.692 -12.986  0.00  0.00    +0.006 A 
ATOM     33  C27 UNL     1     -39.995  33.976 -12.038  0.00  0.00    +0.040 A 
ATOM     34  C29 UNL     1     -39.707  33.017 -11.052  0.00  0.00    +0.006 A 
ATOM     35  C30 UNL     1     -40.403  31.806 -11.014  0.00  0.00    +0.037 A 
BRANCH  33  36
ATOM     36  C28 UNL     1     -39.263  35.266 -12.076  0.00  0.00    +0.208 A 
ATOM     37  N3  UNL     1     -37.944  35.423 -11.826  0.00  0.00    -0.106 NA
ATOM     38  N4  UNL     1     -37.703  36.716 -11.961  0.00  0.00    -0.021 NA
ATOM     39  N5  UNL     1     -38.821  37.342 -12.283  0.00  0.00    -0.021 NA
ATOM     40  N6  UNL     1     -39.811  36.468 -12.361  0.00  0.00    -0.106 NA
ENDBRANCH  33  36
ENDBRANCH  29  30
ENDBRANCH  28  29
ENDBRANCH  27  28
ENDBRANCH  26  27
ENDBRANCH  25  26
ENDBRANCH  24  25
ENDBRANCH   6  24
TORSDOF 11
ENDMDL
MODEL 3
REMARK VINA RESULT:      -6.3      2.767      4.756
REMARK  Name = ./data/4wxx_site_bc02/pdb/l0c2.pdb
REMARK  11 active torsions:
REMARK  status: ('A' for Active; 'I' for Inactive)
REMARK    1  A    between atoms: O1_2  and  C2_3
REMARK    2  A    between atoms: C5_6  and  C6_7
REMARK    3  A    between atoms: N2_9  and  C7_10
REMARK    4  A    between atoms: C19_23  and  O3_24
REMARK    5  A    between atoms: O3_24  and  C20_25
REMARK    6  A    between atoms: C20_25  and  C21_26
REMARK    7  A    between atoms: C21_26  and  C22_27
REMARK    8  A    between atoms: C22_27  and  C23_28
REMARK    9  A    between atoms: C23_28  and  O4_29
REMARK   10  A    between atoms: O4_29  and  C24_30
REMARK   11  A    between atoms: C27_33  and  C28_34
REMARK                            x       y       z     vdW  Elec       q    Type
REMARK                         _______ _______ _______ _____ _____    ______ ____
ROOT
ATOM      1  C2  UNL     1     -42.619  31.008 -12.251  0.00  0.00    +0.172 A 
ATOM      2  C3  UNL     1     -41.901  31.890 -13.075  0.00  0.00    +0.040 A 
ATOM      3  C4  UNL     1     -40.787  32.573 -12.584  0.00  0.00    +0.005 A 
ATOM      4  C5  UNL     1     -40.365  32.400 -11.255  0.00  0.00    +0.019 A 
ATOM      5  C18 UNL     1     -41.093  31.516 -10.433  0.00  0.00    +0.041 A 
ATOM      6  C19 UNL     1     -42.209  30.813 -10.926  0.00  0.00    +0.172 A 
ENDROOT
BRANCH   4   7
ATOM      7  C6  UNL     1     -39.178  33.113 -10.694  0.00  0.00    +0.086 C 
ATOM      8  N1  UNL     1     -38.719  32.823  -9.518  0.00  0.00    -0.171 NA
ATOM      9  N2  UNL     1     -37.595  33.596  -9.236  0.00  0.00    -0.222 N 
ATOM     10  C14 UNL     1     -37.327  34.367 -10.239  0.00  0.00    +0.257 C 
ATOM     11  O2  UNL     1     -36.238  35.238 -10.267  0.00  0.00    -0.270 OA
ATOM     12  C15 UNL     1     -38.329  34.197 -11.343  0.00  0.00    +0.110 C 
ATOM     13  C16 UNL     1     -37.621  33.711 -12.619  0.00  0.00    +0.015 C 
ATOM     14  C17 UNL     1     -39.093  35.517 -11.545  0.00  0.00    +0.015 C 
BRANCH   9  15
ATOM     15  C7  UNL     1     -36.841  33.470  -7.980  0.00  0.00    +0.108 C 
ATOM     16  C8  UNL     1     -37.682  32.690  -6.944  0.00  0.00    +0.024 C 
ATOM     17  C9  UNL     1     -37.204  32.871  -5.498  0.00  0.00    +0.002 C 
ATOM     18  C10 UNL     1     -35.748  32.438  -5.268  0.00  0.00    +0.000 C 
ATOM     19  C11 UNL     1     -34.743  33.465  -5.813  0.00  0.00    +0.000 C 
ATOM     20  C12 UNL     1     -34.348  33.250  -7.286  0.00  0.00    +0.002 C 
ATOM     21  C13 UNL     1     -35.473  32.795  -8.235  0.00  0.00    +0.024 C 
ENDBRANCH   9  15
ENDBRANCH   4   7
BRANCH   1  23
ATOM     22  C1  UNL     1     -45.019  30.887 -12.955  0.00  0.00    +0.253 C 
ATOM     23  O1  UNL     1     -43.742  30.303 -12.713  0.00  0.00    -0.468 OA
ENDBRANCH   1  23
BRANCH   6  24
ATOM     24  O3  UNL     1     -42.941  29.910 -10.134  0.00  0.00    -0.472 OA
BRANCH  24  25
ATOM     25  C20 UNL     1     -43.585  30.216  -8.897  0.00  0.00    +0.206 C 
BRANCH  25  26
ATOM     26  C21 UNL     1     -45.054  30.597  -9.132  0.00  0.00    +0.051 C 
BRANCH  26  27
ATOM     27  C22 UNL     1     -45.463  31.858  -8.356  0.00  0.00    +0.051 C 
BRANCH  27  28
ATOM     28  C23 UNL     1     -45.246  31.714  -6.844  0.00  0.00    +0.206 C 
BRANCH  28  29
ATOM     29  O4  UNL     1     -45.302  32.991  -6.210  0.00  0.00    -0.475 OA
BRANCH  29  30
ATOM     30  C24 UNL     1     -44.196  33.805  -5.918  0.00  0.00    +0.139 A 
ATOM     31  C25 UNL     1     -42.918  33.583  -6.467  0.00  0.00    +0.037 A 
ATOM     32  C26 UNL     1     -41.854  34.430  -6.144  0.00  0.00    +0.006 A 
ATOM     33  C27 UNL     1     -42.041  35.516  -5.272  0.00  0.00    +0.040 A 
ATOM     34  C29 UNL     1     -43.318  35.732  -4.726  0.00  0.00    +0.006 A 
ATOM     35  C30 UNL     1     -44.381  34.885  -5.049  0.00  0.00    +0.037 A 
BRANCH  33  36
ATOM     36  C28 UNL     1     -40.912  36.419  -4.936  0.00  0.00    +0.208 A 
ATOM     37  N3  UNL     1     -39.605  36.082  -4.977  0.00  0.00    -0.106 NA
ATOM     38  N4  UNL     1     -38.943  37.164  -4.604  0.00  0.00    -0.021 NA
ATOM     39  N5  UNL     1     -39.798  38.137  -4.343  0.00  0.00    -0.021 NA
ATOM     40  N6  UNL     1     -41.032  37.705  -4.539  0.00  0.00    -0.106 NA
ENDBRANCH  33  36
ENDBRANCH  29  30
ENDBRANCH  28  29
ENDBRANCH  27  28
ENDBRANCH  26  27
ENDBRANCH  25  26
ENDBRANCH  24  25
ENDBRANCH   6  24
TORSDOF 11
ENDMDL
MODEL 4
REMARK VINA RESULT:      -6.1      3.065      4.391
REMARK  Name = ./data/4wxx_site_bc02/pdb/l0c2.pdb
REMARK  11 active torsions:
REMARK  status: ('A' for Active; 'I' for Inactive)
REMARK    1  A    between atoms: O1_2  and  C2_3
REMARK    2  A    between atoms: C5_6  and  C6_7
REMARK    3  A    between atoms: N2_9  and  C7_10
REMARK    4  A    between atoms: C19_23  and  O3_24
REMARK    5  A    between atoms: O3_24  and  C20_25
REMARK    6  A    between atoms: C20_25  and  C21_26
REMARK    7  A    between atoms: C21_26  and  C22_27
REMARK    8  A    between atoms: C22_27  and  C23_28
REMARK    9  A    between atoms: C23_28  and  O4_29
REMARK   10  A    between atoms: O4_29  and  C24_30
REMARK   11  A    between atoms: C27_33  and  C28_34
REMARK                            x       y       z     vdW  Elec       q    Type
REMARK                         _______ _______ _______ _____ _____    ______ ____
ROOT
ATOM      1  C2  UNL     1     -41.911  31.602  -9.000  0.00  0.00    +0.172 A 
ATOM      2  C3  UNL     1     -40.954  31.772 -10.014  0.00  0.00    +0.040 A 
ATOM      3  C4  UNL     1     -39.664  32.209  -9.706  0.00  0.00    +0.005 A 
ATOM      4  C5  UNL     1     -39.299  32.498  -8.380  0.00  0.00    +0.019 A 
ATOM      5  C18 UNL     1     -40.267  32.329  -7.369  0.00  0.00    +0.041 A 
ATOM      6  C19 UNL     1     -41.565  31.874  -7.670  0.00  0.00    +0.172 A 
ENDROOT
BRANCH   4   7
ATOM      7  C6  UNL     1     -37.929  32.968  -8.013  0.00  0.00    +0.086 C 
ATOM      8  N1  UNL     1     -36.992  33.054  -8.903  0.00  0.00    -0.171 NA
ATOM      9  N2  UNL     1     -35.823  33.546  -8.325  0.00  0.00    -0.222 N 
ATOM     10  C14 UNL     1     -36.020  33.789  -7.070  0.00  0.00    +0.257 C 
ATOM     11  O2  UNL     1     -35.042  34.319  -6.230  0.00  0.00    -0.270 OA
ATOM     12  C15 UNL     1     -37.417  33.429  -6.656  0.00  0.00    +0.110 C 
ATOM     13  C16 UNL     1     -38.146  34.680  -6.140  0.00  0.00    +0.015 C 
ATOM     14  C17 UNL     1     -37.363  32.294  -5.618  0.00  0.00    +0.015 C 
BRANCH   9  15
ATOM     15  C7  UNL     1     -34.594  33.775  -9.098  0.00  0.00    +0.108 C 
ATOM     16  C8  UNL     1     -33.603  32.613  -8.858  0.00  0.00    +0.024 C 
ATOM     17  C9  UNL     1     -32.156  32.945  -9.245  0.00  0.00    +0.002 C 
ATOM     18  C10 UNL     1     -31.985  33.344 -10.719  0.00  0.00    +0.000 C 
ATOM     19  C11 UNL     1     -32.472  34.777 -10.993  0.00  0.00    +0.000 C 
ATOM     20  C12 UNL     1     -33.963  34.884 -11.361  0.00  0.00    +0.002 C 
ATOM     21  C13 UNL     1     -34.922  33.949 -10.599  0.00  0.00    +0.024 C 
ENDBRANCH   9  15
ENDBRANCH   4   7
BRANCH   1  23
ATOM     22  C1  UNL     1     -43.565  30.278 -10.336  0.00  0.00    +0.253 C 
ATOM     23  O1  UNL     1     -43.216  31.161  -9.273  0.00  0.00    -0.468 OA
ENDBRANCH   1  23
BRANCH   6  24
ATOM     24  O3  UNL     1     -42.544  31.678  -6.679  0.00  0.00    -0.472 OA
BRANCH  24  25
ATOM     25  C20 UNL     1     -42.913  30.423  -6.107  0.00  0.00    +0.206 C 
BRANCH  25  26
ATOM     26  C21 UNL     1     -44.000  30.614  -5.041  0.00  0.00    +0.051 C 
BRANCH  26  27
ATOM     27  C22 UNL     1     -45.348  31.037  -5.646  0.00  0.00    +0.051 C 
BRANCH  27  28
ATOM     28  C23 UNL     1     -46.053  32.115  -4.812  0.00  0.00    +0.206 C 
BRANCH  28  29
ATOM     29  O4  UNL     1     -45.859  33.402  -5.399  0.00  0.00    -0.475 OA
BRANCH  29  30
ATOM     30  C24 UNL     1     -44.716  34.204  -5.245  0.00  0.00    +0.139 A 
ATOM     31  C25 UNL     1     -43.987  34.711  -6.337  0.00  0.00    +0.037 A 
ATOM     32  C26 UNL     1     -42.859  35.510  -6.123  0.00  0.00    +0.006 A 
ATOM     33  C27 UNL     1     -42.438  35.821  -4.818  0.00  0.00    +0.040 A 
ATOM     34  C29 UNL     1     -43.170  35.311  -3.732  0.00  0.00    +0.006 A 
ATOM     35  C30 UNL     1     -44.297  34.512  -3.947  0.00  0.00    +0.037 A 
BRANCH  33  36
ATOM     36  C28 UNL     1     -41.246  36.675  -4.593  0.00  0.00    +0.208 A 
ATOM     37  N3  UNL     1     -41.029  37.879  -5.164  0.00  0.00    -0.106 NA
ATOM     38  N4  UNL     1     -39.861  38.292  -4.702  0.00  0.00    -0.021 NA
ATOM     39  N5  UNL     1     -39.368  37.387  -3.876  0.00  0.00    -0.021 NA
ATOM     40  N6  UNL     1     -40.205  36.367  -3.787  0.00  0.00    -0.106 NA
ENDBRANCH  33  36
ENDBRANCH  29  30
ENDBRANCH  28  29
ENDBRANCH  27  28
ENDBRANCH  26  27
ENDBRANCH  25  26
ENDBRANCH  24  25
ENDBRANCH   6  24
TORSDOF 11
ENDMDL
MODEL 5
REMARK VINA RESULT:      -5.8      5.246      7.314
REMARK  Name = ./data/4wxx_site_bc02/pdb/l0c2.pdb
REMARK  11 active torsions:
REMARK  status: ('A' for Active; 'I' for Inactive)
REMARK    1  A    between atoms: O1_2  and  C2_3
REMARK    2  A    between atoms: C5_6  and  C6_7
REMARK    3  A    between atoms: N2_9  and  C7_10
REMARK    4  A    between atoms: C19_23  and  O3_24
REMARK    5  A    between atoms: O3_24  and  C20_25
REMARK    6  A    between atoms: C20_25  and  C21_26
REMARK    7  A    between atoms: C21_26  and  C22_27
REMARK    8  A    between atoms: C22_27  and  C23_28
REMARK    9  A    between atoms: C23_28  and  O4_29
REMARK   10  A    between atoms: O4_29  and  C24_30
REMARK   11  A    between atoms: C27_33  and  C28_34
REMARK                            x       y       z     vdW  Elec       q    Type
REMARK                         _______ _______ _______ _____ _____    ______ ____
ROOT
ATOM      1  C2  UNL     1     -39.874  33.680  -6.858  0.00  0.00    +0.172 A 
ATOM      2  C3  UNL     1     -39.639  32.906  -8.007  0.00  0.00    +0.040 A 
ATOM      3  C4  UNL     1     -38.359  32.825  -8.559  0.00  0.00    +0.005 A 
ATOM      4  C5  UNL     1     -37.282  33.522  -7.984  0.00  0.00    +0.019 A 
ATOM      5  C18 UNL     1     -37.527  34.299  -6.834  0.00  0.00    +0.041 A 
ATOM      6  C19 UNL     1     -38.812  34.373  -6.263  0.00  0.00    +0.172 A 
ENDROOT
BRANCH   4   7
ATOM      7  C6  UNL     1     -35.899  33.459  -8.546  0.00  0.00    +0.086 C 
ATOM      8  N1  UNL     1     -34.893  33.115  -7.806  0.00  0.00    -0.171 NA
ATOM      9  N2  UNL     1     -33.723  33.101  -8.563  0.00  0.00    -0.222 N 
ATOM     10  C14 UNL     1     -33.986  33.419  -9.789  0.00  0.00    +0.257 C 
ATOM     11  O2  UNL     1     -33.020  33.461 -10.794  0.00  0.00    -0.270 OA
ATOM     12  C15 UNL     1     -35.443  33.729  -9.973  0.00  0.00    +0.110 C 
ATOM     13  C16 UNL     1     -36.059  32.752 -10.988  0.00  0.00    +0.015 C 
ATOM     14  C17 UNL     1     -35.601  35.203 -10.386  0.00  0.00    +0.015 C 
BRANCH   9  15
ATOM     15  C7  UNL     1     -32.419  32.723  -7.998  0.00  0.00    +0.108 C 
ATOM     16  C8  UNL     1     -32.252  33.362  -6.601  0.00  0.00    +0.024 C 
ATOM     17  C9  UNL     1     -30.799  33.407  -6.111  0.00  0.00    +0.002 C 
ATOM     18  C10 UNL     1     -30.132  32.025  -6.023  0.00  0.00    +0.000 C 
ATOM     19  C11 UNL     1     -29.734  31.483  -7.406  0.00  0.00    +0.000 C 
ATOM     20  C12 UNL     1     -30.834  30.668  -8.111  0.00  0.00    +0.002 C 
ATOM     21  C13 UNL     1     -32.276  31.184  -7.947  0.00  0.00    +0.024 C 
ENDBRANCH   9  15
ENDBRANCH   4   7
BRANCH   1  23
ATOM     22  C1  UNL     1     -42.292  33.047  -6.703  0.00  0.00    +0.253 C 
ATOM     23  O1  UNL     1     -41.148  33.780  -6.276  0.00  0.00    -0.468 OA
ENDBRANCH   1  23
BRANCH   6  24
ATOM     24  O3  UNL     1     -39.081  35.124  -5.105  0.00  0.00    -0.472 OA
BRANCH  24  25
ATOM     25  C20 UNL     1     -39.170  36.547  -5.034  0.00  0.00    +0.206 C 
BRANCH  25  26
ATOM     26  C21 UNL     1     -40.002  36.978  -3.818  0.00  0.00    +0.051 C 
BRANCH  26  27
ATOM     27  C22 UNL     1     -41.002  35.897  -3.379  0.00  0.00    +0.051 C 
BRANCH  27  28
ATOM     28  C23 UNL     1     -42.387  36.089  -4.008  0.00  0.00    +0.206 C 
BRANCH  28  29
ATOM     29  O4  UNL     1     -43.248  35.007  -3.654  0.00  0.00    -0.475 OA
BRANCH  29  30
ATOM     30  C24 UNL     1     -44.460  34.688  -4.288  0.00  0.00    +0.139 A 
ATOM     31  C25 UNL     1     -45.343  33.707  -3.798  0.00  0.00    +0.037 A 
ATOM     32  C26 UNL     1     -46.540  33.435  -4.468  0.00  0.00    +0.006 A 
ATOM     33  C27 UNL     1     -46.881  34.138  -5.638  0.00  0.00    +0.040 A 
ATOM     34  C29 UNL     1     -45.995  35.115  -6.122  0.00  0.00    +0.006 A 
ATOM     35  C30 UNL     1     -44.800  35.385  -5.451  0.00  0.00    +0.037 A 
BRANCH  33  36
ATOM     36  C28 UNL     1     -48.155  33.854  -6.344  0.00  0.00    +0.208 A 
ATOM     37  N3  UNL     1     -48.714  34.639  -7.290  0.00  0.00    -0.106 NA
ATOM     38  N4  UNL     1     -49.831  34.030  -7.650  0.00  0.00    -0.021 NA
ATOM     39  N5  UNL     1     -49.964  32.911  -6.961  0.00  0.00    -0.021 NA
ATOM     40  N6  UNL     1     -48.938  32.773  -6.139  0.00  0.00    -0.106 NA
ENDBRANCH  33  36
ENDBRANCH  29  30
ENDBRANCH  28  29
ENDBRANCH  27  28
ENDBRANCH  26  27
ENDBRANCH  25  26
ENDBRANCH  24  25
ENDBRANCH   6  24
TORSDOF 11
ENDMDL
MODEL 6
REMARK VINA RESULT:      -5.5      4.732      6.699
REMARK  Name = ./data/4wxx_site_bc02/pdb/l0c2.pdb
REMARK  11 active torsions:
REMARK  status: ('A' for Active; 'I' for Inactive)
REMARK    1  A    between atoms: O1_2  and  C2_3
REMARK    2  A    between atoms: C5_6  and  C6_7
REMARK    3  A    between atoms: N2_9  and  C7_10
REMARK    4  A    between atoms: C19_23  and  O3_24
REMARK    5  A    between atoms: O3_24  and  C20_25
REMARK    6  A    between atoms: C20_25  and  C21_26
REMARK    7  A    between atoms: C21_26  and  C22_27
REMARK    8  A    between atoms: C22_27  and  C23_28
REMARK    9  A    between atoms: C23_28  and  O4_29
REMARK   10  A    between atoms: O4_29  and  C24_30
REMARK   11  A    between atoms: C27_33  and  C28_34
REMARK                            x       y       z     vdW  Elec       q    Type
REMARK                         _______ _______ _______ _____ _____    ______ ____
ROOT
ATOM      1  C2  UNL     1     -40.251  32.811  -6.967  0.00  0.00    +0.172 A 
ATOM      2  C3  UNL     1     -39.650  31.762  -7.684  0.00  0.00    +0.040 A 
ATOM      3  C4  UNL     1     -38.292  31.807  -8.002  0.00  0.00    +0.005 A 
ATOM      4  C5  UNL     1     -37.499  32.903  -7.622  0.00  0.00    +0.019 A 
ATOM      5  C18 UNL     1     -38.110  33.953  -6.907  0.00  0.00    +0.041 A 
ATOM      6  C19 UNL     1     -39.476  33.908  -6.569  0.00  0.00    +0.172 A 
ENDROOT
BRANCH   4   7
ATOM      7  C6  UNL     1     -36.043  32.986  -7.945  0.00  0.00    +0.086 C 
ATOM      8  N1  UNL     1     -35.625  32.911  -9.169  0.00  0.00    -0.171 NA
ATOM      9  N2  UNL     1     -34.239  33.047  -9.214  0.00  0.00    -0.222 N 
ATOM     10  C14 UNL     1     -33.774  33.225  -8.020  0.00  0.00    +0.257 C 
ATOM     11  O2  UNL     1     -32.422  33.423  -7.745  0.00  0.00    -0.270 OA
ATOM     12  C15 UNL     1     -34.871  33.190  -6.995  0.00  0.00    +0.110 C 
ATOM     13  C16 UNL     1     -34.935  34.536  -6.254  0.00  0.00    +0.015 C 
ATOM     14  C17 UNL     1     -34.647  31.995  -6.052  0.00  0.00    +0.015 C 
BRANCH   9  15
ATOM     15  C7  UNL     1     -33.481  33.027 -10.473  0.00  0.00    +0.108 C 
ATOM     16  C8  UNL     1     -34.290  32.279 -11.557  0.00  0.00    +0.024 C 
ATOM     17  C9  UNL     1     -33.445  31.819 -12.751  0.00  0.00    +0.002 C 
ATOM     18  C10 UNL     1     -32.728  32.965 -13.481  0.00  0.00    +0.000 C 
ATOM     19  C11 UNL     1     -31.501  33.470 -12.705  0.00  0.00    +0.000 C 
ATOM     20  C12 UNL     1     -31.804  34.591 -11.693  0.00  0.00    +0.002 C 
ATOM     21  C13 UNL     1     -33.126  34.467 -10.913  0.00  0.00    +0.024 C 
ENDBRANCH   9  15
ENDBRANCH   4   7
BRANCH   1  23
ATOM     22  C1  UNL     1     -42.622  32.109  -7.362  0.00  0.00    +0.253 C 
ATOM     23  O1  UNL     1     -41.613  32.796  -6.628  0.00  0.00    -0.468 OA
ENDBRANCH   1  23
BRANCH   6  24
ATOM     24  O3  UNL     1     -40.107  34.931  -5.839  0.00  0.00    -0.472 OA
BRANCH  24  25
ATOM     25  C20 UNL     1     -39.450  35.906  -5.029  0.00  0.00    +0.206 C 
BRANCH  25  26
ATOM     26  C21 UNL     1     -40.466  36.664  -4.163  0.00  0.00    +0.051 C 
BRANCH  26  27
ATOM     27  C22 UNL     1     -41.918  36.295  -4.504  0.00  0.00    +0.051 C 
BRANCH  27  28
ATOM     28  C23 UNL     1     -42.623  35.564  -3.354  0.00  0.00    +0.206 C 
BRANCH  28  29
ATOM     29  O4  UNL     1     -43.205  34.347  -3.821  0.00  0.00    -0.475 OA
BRANCH  29  30
ATOM     30  C24 UNL     1     -44.428  34.237  -4.503  0.00  0.00    +0.139 A 
ATOM     31  C25 UNL     1     -45.023  35.317  -5.182  0.00  0.00    +0.037 A 
ATOM     32  C26 UNL     1     -46.240  35.148  -5.849  0.00  0.00    +0.006 A 
ATOM     33  C27 UNL     1     -46.887  33.899  -5.854  0.00  0.00    +0.040 A 
ATOM     34  C29 UNL     1     -46.288  32.825  -5.173  0.00  0.00    +0.006 A 
ATOM     35  C30 UNL     1     -45.071  32.996  -4.507  0.00  0.00    +0.037 A 
BRANCH  33  36
ATOM     36  C28 UNL     1     -48.175  33.718  -6.568  0.00  0.00    +0.208 A 
ATOM     37  N3  UNL     1     -48.908  32.584  -6.581  0.00  0.00    -0.106 NA
ATOM     38  N4  UNL     1     -49.965  32.847  -7.330  0.00  0.00    -0.021 NA
ATOM     39  N5  UNL     1     -49.898  34.092  -7.766  0.00  0.00    -0.021 NA
ATOM     40  N6  UNL     1     -48.795  34.661  -7.310  0.00  0.00    -0.106 NA
ENDBRANCH  33  36
ENDBRANCH  29  30
ENDBRANCH  28  29
ENDBRANCH  27  28
ENDBRANCH  26  27
ENDBRANCH  25  26
ENDBRANCH  24  25
ENDBRANCH   6  24
TORSDOF 11
ENDMDL
MODEL 7
REMARK VINA RESULT:      -5.4      3.634      5.856
REMARK  Name = ./data/4wxx_site_bc02/pdb/l0c2.pdb
REMARK  11 active torsions:
REMARK  status: ('A' for Active; 'I' for Inactive)
REMARK    1  A    between atoms: O1_2  and  C2_3
REMARK    2  A    between atoms: C5_6  and  C6_7
REMARK    3  A    between atoms: N2_9  and  C7_10
REMARK    4  A    between atoms: C19_23  and  O3_24
REMARK    5  A    between atoms: O3_24  and  C20_25
REMARK    6  A    between atoms: C20_25  and  C21_26
REMARK    7  A    between atoms: C21_26  and  C22_27
REMARK    8  A    between atoms: C22_27  and  C23_28
REMARK    9  A    between atoms: C23_28  and  O4_29
REMARK   10  A    between atoms: O4_29  and  C24_30
REMARK   11  A    between atoms: C27_33  and  C28_34
REMARK                            x       y       z     vdW  Elec       q    Type
REMARK                         _______ _______ _______ _____ _____    ______ ____
ROOT
ATOM      1  C2  UNL     1     -41.149  32.627  -7.200  0.00  0.00    +0.172 A 
ATOM      2  C3  UNL     1     -41.216  31.980  -8.445  0.00  0.00    +0.040 A 
ATOM      3  C4  UNL     1     -40.306  32.292  -9.456  0.00  0.00    +0.005 A 
ATOM      4  C5  UNL     1     -39.312  33.265  -9.256  0.00  0.00    +0.019 A 
ATOM      5  C18 UNL     1     -39.255  33.913  -8.005  0.00  0.00    +0.041 A 
ATOM      6  C19 UNL     1     -40.159  33.593  -6.975  0.00  0.00    +0.172 A 
ENDROOT
BRANCH   4   7
ATOM      7  C6  UNL     1     -38.321  33.626 -10.314  0.00  0.00    +0.086 C 
ATOM      8  N1  UNL     1     -37.059  33.381 -10.159  0.00  0.00    -0.171 NA
ATOM      9  N2  UNL     1     -36.349  33.777 -11.290  0.00  0.00    -0.222 N 
ATOM     10  C14 UNL     1     -37.161  34.258 -12.175  0.00  0.00    +0.257 C 
ATOM     11  O2  UNL     1     -36.749  34.710 -13.428  0.00  0.00    -0.270 OA
ATOM     12  C15 UNL     1     -38.576  34.261 -11.674  0.00  0.00    +0.110 C 
ATOM     13  C16 UNL     1     -39.453  33.385 -12.584  0.00  0.00    +0.015 C 
ATOM     14  C17 UNL     1     -39.076  35.713 -11.574  0.00  0.00    +0.015 C 
BRANCH   9  15
ATOM     15  C7  UNL     1     -34.895  33.601 -11.415  0.00  0.00    +0.108 C 
ATOM     16  C8  UNL     1     -34.168  34.833 -10.828  0.00  0.00    +0.024 C 
ATOM     17  C9  UNL     1     -32.710  34.966 -11.285  0.00  0.00    +0.002 C 
ATOM     18  C10 UNL     1     -31.836  33.754 -10.927  0.00  0.00    +0.000 C 
ATOM     19  C11 UNL     1     -32.099  32.555 -11.852  0.00  0.00    +0.000 C 
ATOM     20  C12 UNL     1     -33.221  31.615 -11.372  0.00  0.00    +0.002 C 
ATOM     21  C13 UNL     1     -34.447  32.289 -10.728  0.00  0.00    +0.024 C 
ENDBRANCH   9  15
ENDBRANCH   4   7
BRANCH   1  23
ATOM     22  C1  UNL     1     -42.931  31.219  -6.144  0.00  0.00    +0.253 C 
ATOM     23  O1  UNL     1     -42.046  32.336  -6.160  0.00  0.00    -0.468 OA
ENDBRANCH   1  23
BRANCH   6  24
ATOM     24  O3  UNL     1     -40.113  34.209  -5.712  0.00  0.00    -0.472 OA
BRANCH  24  25
ATOM     25  C20 UNL     1     -39.601  35.513  -5.436  0.00  0.00    +0.206 C 
BRANCH  25  26
ATOM     26  C21 UNL     1     -40.544  36.278  -4.497  0.00  0.00    +0.051 C 
BRANCH  26  27
ATOM     27  C22 UNL     1     -42.016  36.158  -4.920  0.00  0.00    +0.051 C 
BRANCH  27  28
ATOM     28  C23 UNL     1     -42.917  35.673  -3.777  0.00  0.00    +0.206 C 
BRANCH  28  29
ATOM     29  O4  UNL     1     -43.627  34.498  -4.168  0.00  0.00    -0.475 OA
BRANCH  29  30
ATOM     30  C24 UNL     1     -44.619  34.437  -5.161  0.00  0.00    +0.139 A 
ATOM     31  C25 UNL     1     -45.985  34.264  -4.866  0.00  0.00    +0.037 A 
ATOM     32  C26 UNL     1     -46.930  34.216  -5.895  0.00  0.00    +0.006 A 
ATOM     33  C27 UNL     1     -46.532  34.342  -7.238  0.00  0.00    +0.040 A 
ATOM     34  C29 UNL     1     -45.168  34.514  -7.526  0.00  0.00    +0.006 A 
ATOM     35  C30 UNL     1     -44.225  34.561  -6.496  0.00  0.00    +0.037 A 
BRANCH  33  36
ATOM     36  C28 UNL     1     -47.537  34.299  -8.330  0.00  0.00    +0.208 A 
ATOM     37  N3  UNL     1     -47.595  35.157  -9.371  0.00  0.00    -0.106 NA
ATOM     38  N4  UNL     1     -48.629  34.771 -10.098  0.00  0.00    -0.021 NA
ATOM     39  N5  UNL     1     -49.193  33.716  -9.539  0.00  0.00    -0.021 NA
ATOM     40  N6  UNL     1     -48.537  33.397  -8.435  0.00  0.00    -0.106 NA
ENDBRANCH  33  36
ENDBRANCH  29  30
ENDBRANCH  28  29
ENDBRANCH  27  28
ENDBRANCH  26  27
ENDBRANCH  25  26
ENDBRANCH  24  25
ENDBRANCH   6  24
TORSDOF 11
ENDMDL
