MODEL 1
REMARK VINA RESULT:      -8.8      0.000      0.000
REMARK  Name = ./data/4wxx_site_bc02/pdb/l0c2.pdb
REMARK  11 active torsions:
REMARK  status: ('A' for Active; 'I' for Inactive)
REMARK    1  A    between atoms: O1_2  and  C2_3
REMARK    2  A    between atoms: C5_6  and  C6_7
REMARK    3  A    between atoms: N2_9  and  C7_10
REMARK    4  A    between atoms: C19_23  and  O3_24
REMARK    5  A    between atoms: O3_24  and  C20_25
REMARK    6  A    between atoms: C20_25  and  C21_26
REMARK    7  A    between atoms: C21_26  and  C22_27
REMARK    8  A    between atoms: C22_27  and  C23_28
REMARK    9  A    between atoms: C23_28  and  O4_29
REMARK   10  A    between atoms: O4_29  and  C24_30
REMARK   11  A    between atoms: C27_33  and  C28_34
REMARK                            x       y       z     vdW  Elec       q    Type
REMARK                         _______ _______ _______ _____ _____    ______ ____
ROOT
ATOM      1  C2  UNL     1     -70.333  61.539 -17.251  0.00  0.00    +0.172 A 
ATOM      2  C3  UNL     1     -69.918  60.484 -18.081  0.00  0.00    +0.040 A 
ATOM      3  C4  UNL     1     -68.962  59.567 -17.640  0.00  0.00    +0.005 A 
ATOM      4  C5  UNL     1     -68.387  59.685 -16.362  0.00  0.00    +0.019 A 
ATOM      5  C18 UNL     1     -68.806  60.748 -15.538  0.00  0.00    +0.041 A 
ATOM      6  C19 UNL     1     -69.781  61.668 -15.969  0.00  0.00    +0.172 A 
ENDROOT
BRANCH   4   7
ATOM      7  C6  UNL     1     -67.362  58.724 -15.856  0.00  0.00    +0.086 C 
ATOM      8  N1  UNL     1     -67.125  58.607 -14.588  0.00  0.00    -0.171 NA
ATOM      9  N2  UNL     1     -66.157  57.629 -14.368  0.00  0.00    -0.222 N 
ATOM     10  C14 UNL     1     -65.788  57.111 -15.494  0.00  0.00    +0.257 C 
ATOM     11  O2  UNL     1     -64.852  56.083 -15.595  0.00  0.00    -0.270 OA
ATOM     12  C15 UNL     1     -66.495  57.757 -16.650  0.00  0.00    +0.110 C 
ATOM     13  C16 UNL     1     -67.321  56.705 -17.409  0.00  0.00    +0.015 C 
ATOM     14  C17 UNL     1     -65.463  58.469 -17.543  0.00  0.00    +0.015 C 
BRANCH   9  15
ATOM     15  C7  UNL     1     -65.699  57.257 -13.021  0.00  0.00    +0.108 C 
ATOM     16  C8  UNL     1     -65.692  58.504 -12.109  0.00  0.00    +0.024 C 
ATOM     17  C9  UNL     1     -64.840  58.341 -10.845  0.00  0.00    +0.002 C 
ATOM     18  C10 UNL     1     -65.277  57.170  -9.950  0.00  0.00    +0.000 C 
ATOM     19  C11 UNL     1     -64.840  55.810 -10.518  0.00  0.00    +0.000 C 
ATOM     20  C12 UNL     1     -65.852  55.168 -11.484  0.00  0.00    +0.002 C 
ATOM     21  C13 UNL     1     -66.584  56.127 -12.442  0.00  0.00    +0.024 C 
ENDBRANCH   9  15
ENDBRANCH   4   7
BRANCH   1  23
ATOM     22  C1  UNL     1     -72.688  62.207 -17.778  0.00  0.00    +0.253 C 
ATOM     23  O1  UNL     1     -71.294  62.476 -17.661  0.00  0.00    -0.468 OA
ENDBRANCH   1  23
BRANCH   6  24
ATOM     24  O3  UNL     1     -70.232  62.726 -15.160  0.00  0.00    -0.472 OA
BRANCH  24  25
ATOM     25  C20 UNL     1     -71.508  62.807 -14.525  0.00  0.00    +0.206 C 
BRANCH  25  26
ATOM     26  C21 UNL     1     -71.579  61.847 -13.329  0.00  0.00    +0.051 C 
BRANCH  26  27
ATOM     27  C22 UNL     1     -73.022  61.579 -12.877  0.00  0.00    +0.051 C 
BRANCH  27  28
ATOM     28  C23 UNL     1     -73.126  61.321 -11.368  0.00  0.00    +0.206 C 
BRANCH  28  29
ATOM     29  O4  UNL     1     -74.012  60.232 -11.110  0.00  0.00    -0.475 OA
BRANCH  29  30
ATOM     30  C24 UNL     1     -75.295  60.340 -10.548  0.00  0.00    +0.139 A 
ATOM     31  C25 UNL     1     -75.574  59.996  -9.212  0.00  0.00    +0.037 A 
ATOM     32  C26 UNL     1     -76.870  60.129  -8.704  0.00  0.00    +0.006 A 
ATOM     33  C27 UNL     1     -77.912  60.610  -9.517  0.00  0.00    +0.040 A 
ATOM     34  C29 UNL     1     -77.627  60.952 -10.850  0.00  0.00    +0.006 A 
ATOM     35  C30 UNL     1     -76.331  60.817 -11.356  0.00  0.00    +0.037 A 
BRANCH  33  36
ATOM     36  C28 UNL     1     -79.286  60.759  -8.975  0.00  0.00    +0.208 A 
ATOM     37  N3  UNL     1     -79.687  61.724  -8.119  0.00  0.00    -0.106 NA
ATOM     38  N4  UNL     1     -80.968  61.491  -7.889  0.00  0.00    -0.021 NA
ATOM     39  N5  UNL     1     -81.353  60.427  -8.572  0.00  0.00    -0.021 NA
ATOM     40  N6  UNL     1     -80.329  59.948  -9.257  0.00  0.00    -0.106 NA
ENDBRANCH  33  36
ENDBRANCH  29  30
ENDBRANCH  28  29
ENDBRANCH  27  28
ENDBRANCH  26  27
ENDBRANCH  25  26
ENDBRANCH  24  25
ENDBRANCH   6  24
TORSDOF 11
ENDMDL
MODEL 2
REMARK VINA RESULT:      -8.0      2.588      4.709
REMARK  Name = ./data/4wxx_site_bc02/pdb/l0c2.pdb
REMARK  11 active torsions:
REMARK  status: ('A' for Active; 'I' for Inactive)
REMARK    1  A    between atoms: O1_2  and  C2_3
REMARK    2  A    between atoms: C5_6  and  C6_7
REMARK    3  A    between atoms: N2_9  and  C7_10
REMARK    4  A    between atoms: C19_23  and  O3_24
REMARK    5  A    between atoms: O3_24  and  C20_25
REMARK    6  A    between atoms: C20_25  and  C21_26
REMARK    7  A    between atoms: C21_26  and  C22_27
REMARK    8  A    between atoms: C22_27  and  C23_28
REMARK    9  A    between atoms: C23_28  and  O4_29
REMARK   10  A    between atoms: O4_29  and  C24_30
REMARK   11  A    between atoms: C27_33  and  C28_34
REMARK                            x       y       z     vdW  Elec       q    Type
REMARK                         _______ _______ _______ _____ _____    ______ ____
ROOT
ATOM      1  C2  UNL     1     -73.308  63.136 -13.087  0.00  0.00    +0.172 A 
ATOM      2  C3  UNL     1     -73.076  63.741 -14.334  0.00  0.00    +0.040 A 
ATOM      3  C4  UNL     1     -72.053  63.282 -15.166  0.00  0.00    +0.005 A 
ATOM      4  C5  UNL     1     -71.229  62.214 -14.772  0.00  0.00    +0.019 A 
ATOM      5  C18 UNL     1     -71.466  61.616 -13.518  0.00  0.00    +0.041 A 
ATOM      6  C19 UNL     1     -72.505  62.063 -12.680  0.00  0.00    +0.172 A 
ENDROOT
BRANCH   4   7
ATOM      7  C6  UNL     1     -70.125  61.697 -15.635  0.00  0.00    +0.086 C 
ATOM      8  N1  UNL     1     -69.325  60.770 -15.211  0.00  0.00    -0.171 NA
ATOM      9  N2  UNL     1     -68.406  60.436 -16.204  0.00  0.00    -0.222 N 
ATOM     10  C14 UNL     1     -68.631  61.138 -17.267  0.00  0.00    +0.257 C 
ATOM     11  O2  UNL     1     -67.894  61.006 -18.443  0.00  0.00    -0.270 OA
ATOM     12  C15 UNL     1     -69.772  62.091 -17.062  0.00  0.00    +0.110 C 
ATOM     13  C16 UNL     1     -70.899  61.779 -18.060  0.00  0.00    +0.015 C 
ATOM     14  C17 UNL     1     -69.253  63.536 -17.174  0.00  0.00    +0.015 C 
BRANCH   9  15
ATOM     15  C7  UNL     1     -67.386  59.394 -16.021  0.00  0.00    +0.108 C 
ATOM     16  C8  UNL     1     -67.067  59.235 -14.517  0.00  0.00    +0.024 C 
ATOM     17  C9  UNL     1     -65.741  58.516 -14.239  0.00  0.00    +0.002 C 
ATOM     18  C10 UNL     1     -65.666  57.102 -14.835  0.00  0.00    +0.000 C 
ATOM     19  C11 UNL     1     -65.428  57.124 -16.354  0.00  0.00    +0.000 C 
ATOM     20  C12 UNL     1     -66.713  57.179 -17.200  0.00  0.00    +0.002 C 
ATOM     21  C13 UNL     1     -67.852  58.062 -16.654  0.00  0.00    +0.024 C 
ENDBRANCH   9  15
ENDBRANCH   4   7
BRANCH   1  23
ATOM     22  C1  UNL     1     -75.721  63.499 -12.525  0.00  0.00    +0.253 C 
ATOM     23  O1  UNL     1     -74.330  63.570 -12.228  0.00  0.00    -0.468 OA
ENDBRANCH   1  23
BRANCH   6  24
ATOM     24  O3  UNL     1     -72.777  61.471 -11.433  0.00  0.00    -0.472 OA
BRANCH  24  25
ATOM     25  C20 UNL     1     -73.571  60.304 -11.218  0.00  0.00    +0.206 C 
BRANCH  25  26
ATOM     26  C21 UNL     1     -74.837  60.651 -10.422  0.00  0.00    +0.051 C 
BRANCH  26  27
ATOM     27  C22 UNL     1     -75.626  59.401 -10.002  0.00  0.00    +0.051 C 
BRANCH  27  28
ATOM     28  C23 UNL     1     -76.329  59.578  -8.650  0.00  0.00    +0.206 C 
BRANCH  28  29
ATOM     29  O4  UNL     1     -77.225  60.688  -8.698  0.00  0.00    -0.475 OA
BRANCH  29  30
ATOM     30  C24 UNL     1     -78.585  60.624  -9.043  0.00  0.00    +0.139 A 
ATOM     31  C25 UNL     1     -79.612  60.526  -8.085  0.00  0.00    +0.037 A 
ATOM     32  C26 UNL     1     -80.950  60.470  -8.487  0.00  0.00    +0.006 A 
ATOM     33  C27 UNL     1     -81.291  60.514  -9.850  0.00  0.00    +0.040 A 
ATOM     34  C29 UNL     1     -80.261  60.611 -10.802  0.00  0.00    +0.006 A 
ATOM     35  C30 UNL     1     -78.924  60.666 -10.398  0.00  0.00    +0.037 A 
BRANCH  33  36
ATOM     36  C28 UNL     1     -82.712  60.463 -10.276  0.00  0.00    +0.208 A 
ATOM     37  N3  UNL     1     -83.327  59.386 -10.812  0.00  0.00    -0.106 NA
ATOM     38  N4  UNL     1     -84.572  59.765 -11.048  0.00  0.00    -0.021 NA
ATOM     39  N5  UNL     1     -84.730  61.022 -10.675  0.00  0.00    -0.021 NA
ATOM     40  N6  UNL     1     -83.590  61.486 -10.191  0.00  0.00    -0.106 NA
ENDBRANCH  33  36
ENDBRANCH  29  30
ENDBRANCH  28  29
ENDBRANCH  27  28
ENDBRANCH  26  27
ENDBRANCH  25  26
ENDBRANCH  24  25
ENDBRANCH   6  24
TORSDOF 11
ENDMDL
MODEL 3
REMARK VINA RESULT:      -7.3      2.502      4.274
REMARK  Name = ./data/4wxx_site_bc02/pdb/l0c2.pdb
REMARK  11 active torsions:
REMARK  status: ('A' for Active; 'I' for Inactive)
REMARK    1  A    between atoms: O1_2  and  C2_3
REMARK    2  A    between atoms: C5_6  and  C6_7
REMARK    3  A    between atoms: N2_9  and  C7_10
REMARK    4  A    between atoms: C19_23  and  O3_24
REMARK    5  A    between atoms: O3_24  and  C20_25
REMARK    6  A    between atoms: C20_25  and  C21_26
REMARK    7  A    between atoms: C21_26  and  C22_27
REMARK    8  A    between atoms: C22_27  and  C23_28
REMARK    9  A    between atoms: C23_28  and  O4_29
REMARK   10  A    between atoms: O4_29  and  C24_30
REMARK   11  A    between atoms: C27_33  and  C28_34
REMARK                            x       y       z     vdW  Elec       q    Type
REMARK                         _______ _______ _______ _____ _____    ______ ____
ROOT
ATOM      1  C2  UNL     1     -73.726  62.521 -13.229  0.00  0.00    +0.172 A 
ATOM      2  C3  UNL     1     -73.129  62.971 -14.419  0.00  0.00    +0.040 A 
ATOM      3  C4  UNL     1     -71.834  62.575 -14.757  0.00  0.00    +0.005 A 
ATOM      4  C5  UNL     1     -71.096  61.729 -13.912  0.00  0.00    +0.019 A 
ATOM      5  C18 UNL     1     -71.700  61.285 -12.718  0.00  0.00    +0.041 A 
ATOM      6  C19 UNL     1     -73.012  61.667 -12.378  0.00  0.00    +0.172 A 
ENDROOT
BRANCH   4   7
ATOM      7  C6  UNL     1     -69.708  61.285 -14.240  0.00  0.00    +0.086 C 
ATOM      8  N1  UNL     1     -69.001  60.615 -13.385  0.00  0.00    -0.171 NA
ATOM      9  N2  UNL     1     -67.762  60.291 -13.933  0.00  0.00    -0.222 N 
ATOM     10  C14 UNL     1     -67.685  60.739 -15.144  0.00  0.00    +0.257 C 
ATOM     11  O2  UNL     1     -66.574  60.544 -15.964  0.00  0.00    -0.270 OA
ATOM     12  C15 UNL     1     -68.930  61.481 -15.533  0.00  0.00    +0.110 C 
ATOM     13  C16 UNL     1     -69.594  60.791 -16.736  0.00  0.00    +0.015 C 
ATOM     14  C17 UNL     1     -68.579  62.955 -15.805  0.00  0.00    +0.015 C 
BRANCH   9  15
ATOM     15  C7  UNL     1     -66.753  59.510 -13.204  0.00  0.00    +0.108 C 
ATOM     16  C8  UNL     1     -66.175  60.356 -12.047  0.00  0.00    +0.024 C 
ATOM     17  C9  UNL     1     -64.840  59.831 -11.504  0.00  0.00    +0.002 C 
ATOM     18  C10 UNL     1     -64.911  58.390 -10.975  0.00  0.00    +0.000 C 
ATOM     19  C11 UNL     1     -64.948  57.354 -12.110  0.00  0.00    +0.000 C 
ATOM     20  C12 UNL     1     -66.363  57.010 -12.613  0.00  0.00    +0.002 C 
ATOM     21  C13 UNL     1     -67.360  58.181 -12.695  0.00  0.00    +0.024 C 
ENDBRANCH   9  15
ENDBRANCH   4   7
BRANCH   1  23
ATOM     22  C1  UNL     1     -75.422  63.256 -11.540  0.00  0.00    +0.253 C 
ATOM     23  O1  UNL     1     -75.028  62.897 -12.861  0.00  0.00    -0.468 OA
ENDBRANCH   1  23
BRANCH   6  24
ATOM     24  O3  UNL     1     -73.647  61.224 -11.204  0.00  0.00    -0.472 OA
BRANCH  24  25
ATOM     25  C20 UNL     1     -74.077  59.888 -10.941  0.00  0.00    +0.206 C 
BRANCH  25  26
ATOM     26  C21 UNL     1     -75.594  59.759 -11.141  0.00  0.00    +0.051 C 
BRANCH  26  27
ATOM     27  C22 UNL     1     -76.289  59.095  -9.943  0.00  0.00    +0.051 C 
BRANCH  27  28
ATOM     28  C23 UNL     1     -76.315  59.999  -8.704  0.00  0.00    +0.206 C 
BRANCH  28  29
ATOM     29  O4  UNL     1     -77.277  61.040  -8.868  0.00  0.00    -0.475 OA
BRANCH  29  30
ATOM     30  C24 UNL     1     -78.603  60.865  -9.296  0.00  0.00    +0.139 A 
ATOM     31  C25 UNL     1     -78.975  60.877 -10.654  0.00  0.00    +0.037 A 
ATOM     32  C26 UNL     1     -80.311  60.692 -11.023  0.00  0.00    +0.006 A 
ATOM     33  C27 UNL     1     -81.302  60.487 -10.046  0.00  0.00    +0.040 A 
ATOM     34  C29 UNL     1     -80.924  60.476  -8.693  0.00  0.00    +0.006 A 
ATOM     35  C30 UNL     1     -79.589  60.662  -8.326  0.00  0.00    +0.037 A 
BRANCH  33  36
ATOM     36  C28 UNL     1     -82.718  60.282 -10.439  0.00  0.00    +0.208 A 
ATOM     37  N3  UNL     1     -83.676  61.235 -10.431  0.00  0.00    -0.106 NA
ATOM     38  N4  UNL     1     -84.781  60.637 -10.842  0.00  0.00    -0.021 NA
ATOM     39  N5  UNL     1     -84.527  59.366 -11.098  0.00  0.00    -0.021 NA
ATOM     40  N6  UNL     1     -83.252  59.113 -10.856  0.00  0.00    -0.106 NA
ENDBRANCH  33  36
ENDBRANCH  29  30
ENDBRANCH  28  29
ENDBRANCH  27  28
ENDBRANCH  26  27
ENDBRANCH  25  26
ENDBRANCH  24  25
ENDBRANCH   6  24
TORSDOF 11
ENDMDL
MODEL 4
REMARK VINA RESULT:      -6.9      2.957     11.394
REMARK  Name = ./data/4wxx_site_bc02/pdb/l0c2.pdb
REMARK  11 active torsions:
REMARK  status: ('A' for Active; 'I' for Inactive)
REMARK    1  A    between atoms: O1_2  and  C2_3
REMARK    2  A    between atoms: C5_6  and  C6_7
REMARK    3  A    between atoms: N2_9  and  C7_10
REMARK    4  A    between atoms: C19_23  and  O3_24
REMARK    5  A    between atoms: O3_24  and  C20_25
REMARK    6  A    between atoms: C20_25  and  C21_26
REMARK    7  A    between atoms: C21_26  and  C22_27
REMARK    8  A    between atoms: C22_27  and  C23_28
REMARK    9  A    between atoms: C23_28  and  O4_29
REMARK   10  A    between atoms: O4_29  and  C24_30
REMARK   11  A    between atoms: C27_33  and  C28_34
REMARK                            x       y       z     vdW  Elec       q    Type
REMARK                         _______ _______ _______ _____ _____    ______ ____
ROOT
ATOM      1  C2  UNL     1     -71.972  63.723 -11.363  0.00  0.00    +0.172 A 
ATOM      2  C3  UNL     1     -72.461  62.835 -10.391  0.00  0.00    +0.040 A 
ATOM      3  C4  UNL     1     -73.782  62.386 -10.439  0.00  0.00    +0.005 A 
ATOM      4  C5  UNL     1     -74.653  62.820 -11.452  0.00  0.00    +0.019 A 
ATOM      5  C18 UNL     1     -74.157  63.715 -12.421  0.00  0.00    +0.041 A 
ATOM      6  C19 UNL     1     -72.822  64.160 -12.389  0.00  0.00    +0.172 A 
ENDROOT
BRANCH   4   7
ATOM      7  C6  UNL     1     -76.073  62.362 -11.536  0.00  0.00    +0.086 C 
ATOM      8  N1  UNL     1     -76.699  61.935 -10.485  0.00  0.00    -0.171 NA
ATOM      9  N2  UNL     1     -78.012  61.599 -10.811  0.00  0.00    -0.222 N 
ATOM     10  C14 UNL     1     -78.228  61.828 -12.065  0.00  0.00    +0.257 C 
ATOM     11  O2  UNL     1     -79.460  61.619 -12.682  0.00  0.00    -0.270 OA
ATOM     12  C15 UNL     1     -76.992  62.340 -12.748  0.00  0.00    +0.110 C 
ATOM     13  C16 UNL     1     -77.255  63.742 -13.320  0.00  0.00    +0.015 C 
ATOM     14  C17 UNL     1     -76.548  61.328 -13.819  0.00  0.00    +0.015 C 
BRANCH   9  15
ATOM     15  C7  UNL     1     -78.974  61.106  -9.815  0.00  0.00    +0.108 C 
ATOM     16  C8  UNL     1     -78.664  59.630  -9.476  0.00  0.00    +0.024 C 
ATOM     17  C9  UNL     1     -79.828  58.893  -8.805  0.00  0.00    +0.002 C 
ATOM     18  C10 UNL     1     -80.293  59.536  -7.488  0.00  0.00    +0.000 C 
ATOM     19  C11 UNL     1     -81.128  60.805  -7.724  0.00  0.00    +0.000 C 
ATOM     20  C12 UNL     1     -80.303  62.102  -7.817  0.00  0.00    +0.002 C 
ATOM     21  C13 UNL     1     -78.954  62.001  -8.553  0.00  0.00    +0.024 C 
ENDBRANCH   9  15
ENDBRANCH   4   7
BRANCH   1  23
ATOM     22  C1  UNL     1     -70.054  64.896 -10.260  0.00  0.00    +0.253 C 
ATOM     23  O1  UNL     1     -70.649  64.192 -11.347  0.00  0.00    -0.468 OA
ENDBRANCH   1  23
BRANCH   6  24
ATOM     24  O3  UNL     1     -72.294  65.037 -13.354  0.00  0.00    -0.472 OA
BRANCH  24  25
ATOM     25  C20 UNL     1     -72.004  64.706 -14.712  0.00  0.00    +0.206 C 
BRANCH  25  26
ATOM     26  C21 UNL     1     -71.757  63.199 -14.862  0.00  0.00    +0.051 C 
BRANCH  26  27
ATOM     27  C22 UNL     1     -71.432  62.798 -16.309  0.00  0.00    +0.051 C 
BRANCH  27  28
ATOM     28  C23 UNL     1     -70.173  63.493 -16.842  0.00  0.00    +0.206 C 
BRANCH  28  29
ATOM     29  O4  UNL     1     -69.128  62.542 -17.045  0.00  0.00    -0.475 OA
BRANCH  29  30
ATOM     30  C24 UNL     1     -68.586  61.704 -16.058  0.00  0.00    +0.139 A 
ATOM     31  C25 UNL     1     -68.414  60.318 -16.243  0.00  0.00    +0.037 A 
ATOM     32  C26 UNL     1     -67.865  59.532 -15.226  0.00  0.00    +0.006 A 
ATOM     33  C27 UNL     1     -67.472  60.111 -14.006  0.00  0.00    +0.040 A 
ATOM     34  C29 UNL     1     -67.647  61.494 -13.827  0.00  0.00    +0.006 A 
ATOM     35  C30 UNL     1     -68.197  62.278 -14.844  0.00  0.00    +0.037 A 
BRANCH  33  36
ATOM     36  C28 UNL     1     -66.881  59.277 -12.930  0.00  0.00    +0.208 A 
ATOM     37  N3  UNL     1     -66.161  59.745 -11.887  0.00  0.00    -0.106 NA
ATOM     38  N4  UNL     1     -65.825  58.682 -11.177  0.00  0.00    -0.021 NA
ATOM     39  N5  UNL     1     -66.315  57.596 -11.748  0.00  0.00    -0.021 NA
ATOM     40  N6  UNL     1     -66.977  57.933 -12.842  0.00  0.00    -0.106 NA
ENDBRANCH  33  36
ENDBRANCH  29  30
ENDBRANCH  28  29
ENDBRANCH  27  28
ENDBRANCH  26  27
ENDBRANCH  25  26
ENDBRANCH  24  25
ENDBRANCH   6  24
TORSDOF 11
ENDMDL
MODEL 5
REMARK VINA RESULT:      -6.6      2.737     11.685
REMARK  Name = ./data/4wxx_site_bc02/pdb/l0c2.pdb
REMARK  11 active torsions:
REMARK  status: ('A' for Active; 'I' for Inactive)
REMARK    1  A    between atoms: O1_2  and  C2_3
REMARK    2  A    between atoms: C5_6  and  C6_7
REMARK    3  A    between atoms: N2_9  and  C7_10
REMARK    4  A    between atoms: C19_23  and  O3_24
REMARK    5  A    between atoms: O3_24  and  C20_25
REMARK    6  A    between atoms: C20_25  and  C21_26
REMARK    7  A    between atoms: C21_26  and  C22_27
REMARK    8  A    between atoms: C22_27  and  C23_28
REMARK    9  A    between atoms: C23_28  and  O4_29
REMARK   10  A    between atoms: O4_29  and  C24_30
REMARK   11  A    between atoms: C27_33  and  C28_34
REMARK                            x       y       z     vdW  Elec       q    Type
REMARK                         _______ _______ _______ _____ _____    ______ ____
ROOT
ATOM      1  C2  UNL     1     -71.662  63.332 -11.448  0.00  0.00    +0.172 A 
ATOM      2  C3  UNL     1     -72.589  64.009 -10.638  0.00  0.00    +0.040 A 
ATOM      3  C4  UNL     1     -73.945  63.681 -10.684  0.00  0.00    +0.005 A 
ATOM      4  C5  UNL     1     -74.413  62.675 -11.546  0.00  0.00    +0.019 A 
ATOM      5  C18 UNL     1     -73.478  62.003 -12.358  0.00  0.00    +0.041 A 
ATOM      6  C19 UNL     1     -72.107  62.318 -12.307  0.00  0.00    +0.172 A 
ENDROOT
BRANCH   4   7
ATOM      7  C6  UNL     1     -75.857  62.297 -11.622  0.00  0.00    +0.086 C 
ATOM      8  N1  UNL     1     -76.488  61.857 -10.579  0.00  0.00    -0.171 NA
ATOM      9  N2  UNL     1     -77.822  61.606 -10.895  0.00  0.00    -0.222 N 
ATOM     10  C14 UNL     1     -78.045  61.901 -12.134  0.00  0.00    +0.257 C 
ATOM     11  O2  UNL     1     -79.297  61.785 -12.736  0.00  0.00    -0.270 OA
ATOM     12  C15 UNL     1     -76.796  62.377 -12.817  0.00  0.00    +0.110 C 
ATOM     13  C16 UNL     1     -76.993  63.815 -13.322  0.00  0.00    +0.015 C 
ATOM     14  C17 UNL     1     -76.425  61.391 -13.939  0.00  0.00    +0.015 C 
BRANCH   9  15
ATOM     15  C7  UNL     1     -78.792  61.120  -9.903  0.00  0.00    +0.108 C 
ATOM     16  C8  UNL     1     -78.488  59.646  -9.554  0.00  0.00    +0.024 C 
ATOM     17  C9  UNL     1     -79.659  58.914  -8.887  0.00  0.00    +0.002 C 
ATOM     18  C10 UNL     1     -80.131  59.565  -7.578  0.00  0.00    +0.000 C 
ATOM     19  C11 UNL     1     -80.961  60.835  -7.827  0.00  0.00    +0.000 C 
ATOM     20  C12 UNL     1     -80.133  62.130  -7.920  0.00  0.00    +0.002 C 
ATOM     21  C13 UNL     1     -78.779  62.022  -8.646  0.00  0.00    +0.024 C 
ENDBRANCH   9  15
ENDBRANCH   4   7
BRANCH   1  23
ATOM     22  C1  UNL     1     -69.754  64.954 -11.451  0.00  0.00    +0.253 C 
ATOM     23  O1  UNL     1     -70.291  63.634 -11.426  0.00  0.00    -0.468 OA
ENDBRANCH   1  23
BRANCH   6  24
ATOM     24  O3  UNL     1     -71.149  61.650 -13.091  0.00  0.00    -0.472 OA
BRANCH  24  25
ATOM     25  C20 UNL     1     -70.847  61.931 -14.458  0.00  0.00    +0.206 C 
BRANCH  25  26
ATOM     26  C21 UNL     1     -69.864  60.894 -15.019  0.00  0.00    +0.051 C 
BRANCH  26  27
ATOM     27  C22 UNL     1     -68.813  61.523 -15.947  0.00  0.00    +0.051 C 
BRANCH  27  28
ATOM     28  C23 UNL     1     -67.717  62.268 -15.173  0.00  0.00    +0.206 C 
BRANCH  28  29
ATOM     29  O4  UNL     1     -66.521  61.490 -15.134  0.00  0.00    -0.475 OA
BRANCH  29  30
ATOM     30  C24 UNL     1     -66.245  60.464 -14.215  0.00  0.00    +0.139 A 
ATOM     31  C25 UNL     1     -65.729  59.212 -14.601  0.00  0.00    +0.037 A 
ATOM     32  C26 UNL     1     -65.468  58.230 -13.641  0.00  0.00    +0.006 A 
ATOM     33  C27 UNL     1     -65.714  58.476 -12.278  0.00  0.00    +0.040 A 
ATOM     34  C29 UNL     1     -66.229  59.728 -11.900  0.00  0.00    +0.006 A 
ATOM     35  C30 UNL     1     -66.490  60.709 -12.861  0.00  0.00    +0.037 A 
BRANCH  33  36
ATOM     36  C28 UNL     1     -65.429  57.436 -11.259  0.00  0.00    +0.208 A 
ATOM     37  N3  UNL     1     -65.621  56.109 -11.425  0.00  0.00    -0.106 NA
ATOM     38  N4  UNL     1     -65.250  55.547 -10.287  0.00  0.00    -0.021 NA
ATOM     39  N5  UNL     1     -64.842  56.481  -9.446  0.00  0.00    -0.021 NA
ATOM     40  N6  UNL     1     -64.943  57.667 -10.021  0.00  0.00    -0.106 NA
ENDBRANCH  33  36
ENDBRANCH  29  30
ENDBRANCH  28  29
ENDBRANCH  27  28
ENDBRANCH  26  27
ENDBRANCH  25  26
ENDBRANCH  24  25
ENDBRANCH   6  24
TORSDOF 11
ENDMDL
