MODEL 1
REMARK VINA RESULT:      -8.8      0.000      0.000
REMARK  Name = ./data/4wxx_site_bc02/pdb/l0c0.pdb
REMARK  11 active torsions:
REMARK  status: ('A' for Active; 'I' for Inactive)
REMARK    1  A    between atoms: O1_2  and  C2_3
REMARK    2  A    between atoms: C5_6  and  C6_7
REMARK    3  A    between atoms: N2_9  and  C7_10
REMARK    4  A    between atoms: C19_23  and  O3_24
REMARK    5  A    between atoms: O3_24  and  C20_25
REMARK    6  A    between atoms: C20_25  and  C21_26
REMARK    7  A    between atoms: C21_26  and  C22_27
REMARK    8  A    between atoms: C22_27  and  C23_28
REMARK    9  A    between atoms: C23_28  and  O4_29
REMARK   10  A    between atoms: O4_29  and  C24_30
REMARK   11  A    between atoms: C27_33  and  C28_34
REMARK                            x       y       z     vdW  Elec       q    Type
REMARK                         _______ _______ _______ _____ _____    ______ ____
ROOT
ATOM      1  C2  UNL     1     -52.070  63.333   6.583  0.00  0.00    +0.172 A 
ATOM      2  C3  UNL     1     -51.007  63.188   7.494  0.00  0.00    +0.040 A 
ATOM      3  C4  UNL     1     -50.306  61.983   7.585  0.00  0.00    +0.005 A 
ATOM      4  C5  UNL     1     -50.652  60.892   6.771  0.00  0.00    +0.019 A 
ATOM      5  C18 UNL     1     -51.733  61.036   5.881  0.00  0.00    +0.041 A 
ATOM      6  C19 UNL     1     -52.429  62.254   5.765  0.00  0.00    +0.172 A 
ENDROOT
BRANCH   4   7
ATOM      7  C6  UNL     1     -49.905  59.600   6.792  0.00  0.00    +0.086 C 
ATOM      8  N1  UNL     1     -50.442  58.519   6.321  0.00  0.00    -0.171 NA
ATOM      9  N2  UNL     1     -49.548  57.455   6.413  0.00  0.00    -0.222 N 
ATOM     10  C14 UNL     1     -48.441  57.852   6.947  0.00  0.00    +0.257 C 
ATOM     11  O2  UNL     1     -47.355  57.009   7.175  0.00  0.00    -0.270 OA
ATOM     12  C15 UNL     1     -48.487  59.321   7.271  0.00  0.00    +0.110 C 
ATOM     13  C16 UNL     1     -48.322  59.529   8.784  0.00  0.00    +0.015 C 
ATOM     14  C17 UNL     1     -47.424  60.063   6.442  0.00  0.00    +0.015 C 
BRANCH   9  15
ATOM     15  C7  UNL     1     -49.858  56.104   5.926  0.00  0.00    +0.108 C 
ATOM     16  C8  UNL     1     -51.342  56.042   5.501  0.00  0.00    +0.024 C 
ATOM     17  C9  UNL     1     -51.705  54.801   4.667  0.00  0.00    +0.002 C 
ATOM     18  C10 UNL     1     -51.535  55.046   3.159  0.00  0.00    +0.000 C 
ATOM     19  C11 UNL     1     -50.074  55.058   2.693  0.00  0.00    +0.000 C 
ATOM     20  C12 UNL     1     -49.209  56.112   3.400  0.00  0.00    +0.002 C 
ATOM     21  C13 UNL     1     -48.837  55.695   4.835  0.00  0.00    +0.024 C 
ENDBRANCH   9  15
ENDBRANCH   4   7
BRANCH   1  23
ATOM     22  C1  UNL     1     -53.860  64.919   7.323  0.00  0.00    +0.253 C 
ATOM     23  O1  UNL     1     -52.793  64.531   6.463  0.00  0.00    -0.468 OA
ENDBRANCH   1  23
BRANCH   6  24
ATOM     24  O3  UNL     1     -53.481  62.431   4.847  0.00  0.00    -0.472 OA
BRANCH  24  25
ATOM     25  C20 UNL     1     -53.960  61.440   3.936  0.00  0.00    +0.206 C 
BRANCH  25  26
ATOM     26  C21 UNL     1     -53.864  61.932   2.485  0.00  0.00    +0.051 C 
BRANCH  26  27
ATOM     27  C22 UNL     1     -53.773  63.461   2.432  0.00  0.00    +0.051 C 
BRANCH  27  28
ATOM     28  C23 UNL     1     -52.816  63.920   1.327  0.00  0.00    +0.206 C 
BRANCH  28  29
ATOM     29  O4  UNL     1     -52.240  65.185   1.659  0.00  0.00    -0.475 OA
BRANCH  29  30
ATOM     30  C24 UNL     1     -51.064  65.370   2.405  0.00  0.00    +0.139 A 
ATOM     31  C25 UNL     1     -50.703  64.533   3.479  0.00  0.00    +0.037 A 
ATOM     32  C26 UNL     1     -49.521  64.764   4.189  0.00  0.00    +0.006 A 
ATOM     33  C27 UNL     1     -48.674  65.829   3.840  0.00  0.00    +0.040 A 
ATOM     34  C29 UNL     1     -49.035  66.659   2.765  0.00  0.00    +0.006 A 
ATOM     35  C30 UNL     1     -50.219  66.428   2.056  0.00  0.00    +0.037 A 
BRANCH  33  36
ATOM     36  C28 UNL     1     -47.419  66.072   4.593  0.00  0.00    +0.208 A 
ATOM     37  N3  UNL     1     -47.053  65.434   5.728  0.00  0.00    -0.106 NA
ATOM     38  N4  UNL     1     -45.884  65.952   6.069  0.00  0.00    -0.021 NA
ATOM     39  N5  UNL     1     -45.532  66.870   5.185  0.00  0.00    -0.021 NA
ATOM     40  N6  UNL     1     -46.467  66.969   4.255  0.00  0.00    -0.106 NA
ENDBRANCH  33  36
ENDBRANCH  29  30
ENDBRANCH  28  29
ENDBRANCH  27  28
ENDBRANCH  26  27
ENDBRANCH  25  26
ENDBRANCH  24  25
ENDBRANCH   6  24
TORSDOF 11
ENDMDL
MODEL 2
REMARK VINA RESULT:      -7.3      2.498      4.118
REMARK  Name = ./data/4wxx_site_bc02/pdb/l0c0.pdb
REMARK  11 active torsions:
REMARK  status: ('A' for Active; 'I' for Inactive)
REMARK    1  A    between atoms: O1_2  and  C2_3
REMARK    2  A    between atoms: C5_6  and  C6_7
REMARK    3  A    between atoms: N2_9  and  C7_10
REMARK    4  A    between atoms: C19_23  and  O3_24
REMARK    5  A    between atoms: O3_24  and  C20_25
REMARK    6  A    between atoms: C20_25  and  C21_26
REMARK    7  A    between atoms: C21_26  and  C22_27
REMARK    8  A    between atoms: C22_27  and  C23_28
REMARK    9  A    between atoms: C23_28  and  O4_29
REMARK   10  A    between atoms: O4_29  and  C24_30
REMARK   11  A    between atoms: C27_33  and  C28_34
REMARK                            x       y       z     vdW  Elec       q    Type
REMARK                         _______ _______ _______ _____ _____    ______ ____
ROOT
ATOM      1  C2  UNL     1     -50.418  61.529   7.847  0.00  0.00    +0.172 A 
ATOM      2  C3  UNL     1     -49.022  61.542   7.670  0.00  0.00    +0.040 A 
ATOM      3  C4  UNL     1     -48.344  60.389   7.267  0.00  0.00    +0.005 A 
ATOM      4  C5  UNL     1     -49.044  59.193   7.034  0.00  0.00    +0.019 A 
ATOM      5  C18 UNL     1     -50.436  59.181   7.238  0.00  0.00    +0.041 A 
ATOM      6  C19 UNL     1     -51.131  60.344   7.621  0.00  0.00    +0.172 A 
ENDROOT
BRANCH   4   7
ATOM      7  C6  UNL     1     -48.377  57.947   6.554  0.00  0.00    +0.086 C 
ATOM      8  N1  UNL     1     -47.153  57.683   6.887  0.00  0.00    -0.171 NA
ATOM      9  N2  UNL     1     -46.761  56.457   6.356  0.00  0.00    -0.222 N 
ATOM     10  C14 UNL     1     -47.731  55.937   5.679  0.00  0.00    +0.257 C 
ATOM     11  O2  UNL     1     -47.637  54.710   5.024  0.00  0.00    -0.270 OA
ATOM     12  C15 UNL     1     -48.950  56.819   5.708  0.00  0.00    +0.110 C 
ATOM     13  C16 UNL     1     -49.304  57.270   4.283  0.00  0.00    +0.015 C 
ATOM     14  C17 UNL     1     -50.104  56.079   6.408  0.00  0.00    +0.015 C 
BRANCH   9  15
ATOM     15  C7  UNL     1     -45.436  55.868   6.592  0.00  0.00    +0.108 C 
ATOM     16  C8  UNL     1     -44.357  56.963   6.436  0.00  0.00    +0.024 C 
ATOM     17  C9  UNL     1     -42.974  56.564   6.982  0.00  0.00    +0.002 C 
ATOM     18  C10 UNL     1     -42.803  56.947   8.461  0.00  0.00    +0.000 C 
ATOM     19  C11 UNL     1     -43.562  56.033   9.430  0.00  0.00    +0.000 C 
ATOM     20  C12 UNL     1     -45.076  55.982   9.173  0.00  0.00    +0.002 C 
ATOM     21  C13 UNL     1     -45.430  55.118   7.947  0.00  0.00    +0.024 C 
ENDBRANCH   9  15
ENDBRANCH   4   7
BRANCH   1  23
ATOM     22  C1  UNL     1     -50.928  63.976   7.714  0.00  0.00    +0.253 C 
ATOM     23  O1  UNL     1     -51.130  62.671   8.247  0.00  0.00    -0.468 OA
ENDBRANCH   1  23
BRANCH   6  24
ATOM     24  O3  UNL     1     -52.528  60.363   7.784  0.00  0.00    -0.472 OA
BRANCH  24  25
ATOM     25  C20 UNL     1     -53.438  61.176   7.038  0.00  0.00    +0.206 C 
BRANCH  25  26
ATOM     26  C21 UNL     1     -52.841  61.564   5.677  0.00  0.00    +0.051 C 
BRANCH  26  27
ATOM     27  C22 UNL     1     -53.197  63.011   5.318  0.00  0.00    +0.051 C 
BRANCH  27  28
ATOM     28  C23 UNL     1     -53.352  63.182   3.804  0.00  0.00    +0.206 C 
BRANCH  28  29
ATOM     29  O4  UNL     1     -52.079  63.113   3.160  0.00  0.00    -0.475 OA
BRANCH  29  30
ATOM     30  C24 UNL     1     -50.927  63.810   3.564  0.00  0.00    +0.139 A 
ATOM     31  C25 UNL     1     -50.682  65.150   3.207  0.00  0.00    +0.037 A 
ATOM     32  C26 UNL     1     -49.518  65.795   3.635  0.00  0.00    +0.006 A 
ATOM     33  C27 UNL     1     -48.578  65.119   4.432  0.00  0.00    +0.040 A 
ATOM     34  C29 UNL     1     -48.829  63.783   4.791  0.00  0.00    +0.006 A 
ATOM     35  C30 UNL     1     -49.993  63.139   4.360  0.00  0.00    +0.037 A 
BRANCH  33  36
ATOM     36  C28 UNL     1     -47.344  65.805   4.888  0.00  0.00    +0.208 A 
ATOM     37  N3  UNL     1     -46.660  65.514   6.017  0.00  0.00    -0.106 NA
ATOM     38  N4  UNL     1     -45.642  66.358   6.047  0.00  0.00    -0.021 NA
ATOM     39  N5  UNL     1     -45.685  67.141   4.983  0.00  0.00    -0.021 NA
ATOM     40  N6  UNL     1     -46.733  66.822   4.242  0.00  0.00    -0.106 NA
ENDBRANCH  33  36
ENDBRANCH  29  30
ENDBRANCH  28  29
ENDBRANCH  27  28
ENDBRANCH  26  27
ENDBRANCH  25  26
ENDBRANCH  24  25
ENDBRANCH   6  24
TORSDOF 11
ENDMDL
MODEL 3
REMARK VINA RESULT:      -6.5      2.567      3.837
REMARK  Name = ./data/4wxx_site_bc02/pdb/l0c0.pdb
REMARK  11 active torsions:
REMARK  status: ('A' for Active; 'I' for Inactive)
REMARK    1  A    between atoms: O1_2  and  C2_3
REMARK    2  A    between atoms: C5_6  and  C6_7
REMARK    3  A    between atoms: N2_9  and  C7_10
REMARK    4  A    between atoms: C19_23  and  O3_24
REMARK    5  A    between atoms: O3_24  and  C20_25
REMARK    6  A    between atoms: C20_25  and  C21_26
REMARK    7  A    between atoms: C21_26  and  C22_27
REMARK    8  A    between atoms: C22_27  and  C23_28
REMARK    9  A    between atoms: C23_28  and  O4_29
REMARK   10  A    between atoms: O4_29  and  C24_30
REMARK   11  A    between atoms: C27_33  and  C28_34
REMARK                            x       y       z     vdW  Elec       q    Type
REMARK                         _______ _______ _______ _____ _____    ______ ____
ROOT
ATOM      1  C2  UNL     1     -49.257  61.939   7.138  0.00  0.00    +0.172 A 
ATOM      2  C3  UNL     1     -48.245  61.679   6.195  0.00  0.00    +0.040 A 
ATOM      3  C4  UNL     1     -47.721  60.392   6.049  0.00  0.00    +0.005 A 
ATOM      4  C5  UNL     1     -48.192  59.334   6.844  0.00  0.00    +0.019 A 
ATOM      5  C18 UNL     1     -49.186  59.606   7.802  0.00  0.00    +0.041 A 
ATOM      6  C19 UNL     1     -49.737  60.894   7.939  0.00  0.00    +0.172 A 
ENDROOT
BRANCH   4   7
ATOM      7  C6  UNL     1     -47.702  57.932   6.695  0.00  0.00    +0.086 C 
ATOM      8  N1  UNL     1     -48.371  57.069   5.997  0.00  0.00    -0.171 NA
ATOM      9  N2  UNL     1     -47.704  55.847   5.970  0.00  0.00    -0.222 N 
ATOM     10  C14 UNL     1     -46.612  55.924   6.655  0.00  0.00    +0.257 C 
ATOM     11  O2  UNL     1     -45.732  54.854   6.816  0.00  0.00    -0.270 OA
ATOM     12  C15 UNL     1     -46.424  57.301   7.230  0.00  0.00    +0.110 C 
ATOM     13  C16 UNL     1     -46.398  57.229   8.764  0.00  0.00    +0.015 C 
ATOM     14  C17 UNL     1     -45.155  57.938   6.637  0.00  0.00    +0.015 C 
BRANCH   9  15
ATOM     15  C7  UNL     1     -48.199  54.681   5.226  0.00  0.00    +0.108 C 
ATOM     16  C8  UNL     1     -49.655  54.385   5.650  0.00  0.00    +0.024 C 
ATOM     17  C9  UNL     1     -50.396  53.414   4.714  0.00  0.00    +0.002 C 
ATOM     18  C10 UNL     1     -51.132  54.148   3.581  0.00  0.00    +0.000 C 
ATOM     19  C11 UNL     1     -50.205  54.667   2.475  0.00  0.00    +0.000 C 
ATOM     20  C12 UNL     1     -49.122  55.632   2.979  0.00  0.00    +0.002 C 
ATOM     21  C13 UNL     1     -47.980  54.898   3.708  0.00  0.00    +0.024 C 
ENDBRANCH   9  15
ENDBRANCH   4   7
BRANCH   1  23
ATOM     22  C1  UNL     1     -49.374  64.383   6.613  0.00  0.00    +0.253 C 
ATOM     23  O1  UNL     1     -49.809  63.218   7.307  0.00  0.00    -0.468 OA
ENDBRANCH   1  23
BRANCH   6  24
ATOM     24  O3  UNL     1     -50.765  61.176   8.859  0.00  0.00    -0.472 OA
BRANCH  24  25
ATOM     25  C20 UNL     1     -52.104  61.541   8.517  0.00  0.00    +0.206 C 
BRANCH  25  26
ATOM     26  C21 UNL     1     -52.578  60.789   7.265  0.00  0.00    +0.051 C 
BRANCH  26  27
ATOM     27  C22 UNL     1     -53.818  61.459   6.663  0.00  0.00    +0.051 C 
BRANCH  27  28
ATOM     28  C23 UNL     1     -53.620  61.748   5.172  0.00  0.00    +0.206 C 
BRANCH  28  29
ATOM     29  O4  UNL     1     -53.965  63.102   4.875  0.00  0.00    -0.475 OA
BRANCH  29  30
ATOM     30  C24 UNL     1     -53.244  63.954   4.020  0.00  0.00    +0.139 A 
ATOM     31  C25 UNL     1     -51.837  63.980   3.980  0.00  0.00    +0.037 A 
ATOM     32  C26 UNL     1     -51.171  64.849   3.110  0.00  0.00    +0.006 A 
ATOM     33  C27 UNL     1     -51.894  65.705   2.261  0.00  0.00    +0.040 A 
ATOM     34  C29 UNL     1     -53.298  65.671   2.302  0.00  0.00    +0.006 A 
ATOM     35  C30 UNL     1     -53.964  64.803   3.174  0.00  0.00    +0.037 A 
BRANCH  33  36
ATOM     36  C28 UNL     1     -51.186  66.625   1.338  0.00  0.00    +0.208 A 
ATOM     37  N3  UNL     1     -51.400  66.712   0.005  0.00  0.00    -0.106 NA
ATOM     38  N4  UNL     1     -50.563  67.639  -0.432  0.00  0.00    -0.021 NA
ATOM     39  N5  UNL     1     -49.860  68.113   0.582  0.00  0.00    -0.021 NA
ATOM     40  N6  UNL     1     -50.223  67.502   1.697  0.00  0.00    -0.106 NA
ENDBRANCH  33  36
ENDBRANCH  29  30
ENDBRANCH  28  29
ENDBRANCH  27  28
ENDBRANCH  26  27
ENDBRANCH  25  26
ENDBRANCH  24  25
ENDBRANCH   6  24
TORSDOF 11
ENDMDL
MODEL 4
REMARK VINA RESULT:      -6.3      3.529      9.107
REMARK  Name = ./data/4wxx_site_bc02/pdb/l0c0.pdb
REMARK  11 active torsions:
REMARK  status: ('A' for Active; 'I' for Inactive)
REMARK    1  A    between atoms: O1_2  and  C2_3
REMARK    2  A    between atoms: C5_6  and  C6_7
REMARK    3  A    between atoms: N2_9  and  C7_10
REMARK    4  A    between atoms: C19_23  and  O3_24
REMARK    5  A    between atoms: O3_24  and  C20_25
REMARK    6  A    between atoms: C20_25  and  C21_26
REMARK    7  A    between atoms: C21_26  and  C22_27
REMARK    8  A    between atoms: C22_27  and  C23_28
REMARK    9  A    between atoms: C23_28  and  O4_29
REMARK   10  A    between atoms: O4_29  and  C24_30
REMARK   11  A    between atoms: C27_33  and  C28_34
REMARK                            x       y       z     vdW  Elec       q    Type
REMARK                         _______ _______ _______ _____ _____    ______ ____
ROOT
ATOM      1  C2  UNL     1     -47.007  66.156   4.893  0.00  0.00    +0.172 A 
ATOM      2  C3  UNL     1     -47.042  67.229   3.983  0.00  0.00    +0.040 A 
ATOM      3  C4  UNL     1     -48.074  67.336   3.047  0.00  0.00    +0.005 A 
ATOM      4  C5  UNL     1     -49.095  66.373   2.995  0.00  0.00    +0.019 A 
ATOM      5  C18 UNL     1     -49.040  65.289   3.892  0.00  0.00    +0.041 A 
ATOM      6  C19 UNL     1     -48.017  65.186   4.854  0.00  0.00    +0.172 A 
ENDROOT
BRANCH   4   7
ATOM      7  C6  UNL     1     -50.246  66.466   2.051  0.00  0.00    +0.086 C 
ATOM      8  N1  UNL     1     -51.117  65.510   1.973  0.00  0.00    -0.171 NA
ATOM      9  N2  UNL     1     -52.114  65.836   1.057  0.00  0.00    -0.222 N 
ATOM     10  C14 UNL     1     -51.880  66.998   0.544  0.00  0.00    +0.257 C 
ATOM     11  O2  UNL     1     -52.703  67.593  -0.411  0.00  0.00    -0.270 OA
ATOM     12  C15 UNL     1     -50.629  67.606   1.117  0.00  0.00    +0.110 C 
ATOM     13  C16 UNL     1     -49.597  67.830   0.002  0.00  0.00    +0.015 C 
ATOM     14  C17 UNL     1     -50.986  68.899   1.873  0.00  0.00    +0.015 C 
BRANCH   9  15
ATOM     15  C7  UNL     1     -53.262  64.963   0.778  0.00  0.00    +0.108 C 
ATOM     16  C8  UNL     1     -52.824  63.837  -0.185  0.00  0.00    +0.024 C 
ATOM     17  C9  UNL     1     -53.827  62.674  -0.288  0.00  0.00    +0.002 C 
ATOM     18  C10 UNL     1     -53.543  61.570   0.743  0.00  0.00    +0.000 C 
ATOM     19  C11 UNL     1     -53.959  61.935   2.173  0.00  0.00    +0.000 C 
ATOM     20  C12 UNL     1     -53.281  63.207   2.707  0.00  0.00    +0.002 C 
ATOM     21  C13 UNL     1     -53.894  64.488   2.111  0.00  0.00    +0.024 C 
ENDBRANCH   9  15
ENDBRANCH   4   7
BRANCH   1  23
ATOM     22  C1  UNL     1     -44.599  65.933   5.540  0.00  0.00    +0.253 C 
ATOM     23  O1  UNL     1     -45.987  66.020   5.848  0.00  0.00    -0.468 OA
ENDBRANCH   1  23
BRANCH   6  24
ATOM     24  O3  UNL     1     -47.971  64.135   5.789  0.00  0.00    -0.472 OA
BRANCH  24  25
ATOM     25  C20 UNL     1     -49.108  63.523   6.402  0.00  0.00    +0.206 C 
BRANCH  25  26
ATOM     26  C21 UNL     1     -49.178  62.027   6.064  0.00  0.00    +0.051 C 
BRANCH  26  27
ATOM     27  C22 UNL     1     -50.634  61.557   5.966  0.00  0.00    +0.051 C 
BRANCH  27  28
ATOM     28  C23 UNL     1     -50.842  60.242   6.724  0.00  0.00    +0.206 C 
BRANCH  28  29
ATOM     29  O4  UNL     1     -49.813  59.308   6.396  0.00  0.00    -0.475 OA
BRANCH  29  30
ATOM     30  C24 UNL     1     -48.883  58.773   7.304  0.00  0.00    +0.139 A 
ATOM     31  C25 UNL     1     -48.795  59.198   8.643  0.00  0.00    +0.037 A 
ATOM     32  C26 UNL     1     -47.849  58.633   9.504  0.00  0.00    +0.006 A 
ATOM     33  C27 UNL     1     -46.976  57.630   9.047  0.00  0.00    +0.040 A 
ATOM     34  C29 UNL     1     -47.072  57.205   7.711  0.00  0.00    +0.006 A 
ATOM     35  C30 UNL     1     -48.017  57.773   6.851  0.00  0.00    +0.037 A 
BRANCH  33  36
ATOM     36  C28 UNL     1     -45.974  57.029   9.962  0.00  0.00    +0.208 A 
ATOM     37  N3  UNL     1     -44.801  56.476   9.580  0.00  0.00    -0.106 NA
ATOM     38  N4  UNL     1     -44.222  56.059  10.695  0.00  0.00    -0.021 NA
ATOM     39  N5  UNL     1     -44.997  56.342  11.728  0.00  0.00    -0.021 NA
ATOM     40  N6  UNL     1     -46.095  56.945  11.305  0.00  0.00    -0.106 NA
ENDBRANCH  33  36
ENDBRANCH  29  30
ENDBRANCH  28  29
ENDBRANCH  27  28
ENDBRANCH  26  27
ENDBRANCH  25  26
ENDBRANCH  24  25
ENDBRANCH   6  24
TORSDOF 11
ENDMDL
MODEL 5
REMARK VINA RESULT:      -6.0      3.600      4.666
REMARK  Name = ./data/4wxx_site_bc02/pdb/l0c0.pdb
REMARK  11 active torsions:
REMARK  status: ('A' for Active; 'I' for Inactive)
REMARK    1  A    between atoms: O1_2  and  C2_3
REMARK    2  A    between atoms: C5_6  and  C6_7
REMARK    3  A    between atoms: N2_9  and  C7_10
REMARK    4  A    between atoms: C19_23  and  O3_24
REMARK    5  A    between atoms: O3_24  and  C20_25
REMARK    6  A    between atoms: C20_25  and  C21_26
REMARK    7  A    between atoms: C21_26  and  C22_27
REMARK    8  A    between atoms: C22_27  and  C23_28
REMARK    9  A    between atoms: C23_28  and  O4_29
REMARK   10  A    between atoms: O4_29  and  C24_30
REMARK   11  A    between atoms: C27_33  and  C28_34
REMARK                            x       y       z     vdW  Elec       q    Type
REMARK                         _______ _______ _______ _____ _____    ______ ____
ROOT
ATOM      1  C2  UNL     1     -49.474  62.016   7.212  0.00  0.00    +0.172 A 
ATOM      2  C3  UNL     1     -48.567  61.752   6.169  0.00  0.00    +0.040 A 
ATOM      3  C4  UNL     1     -48.033  60.473   5.995  0.00  0.00    +0.005 A 
ATOM      4  C5  UNL     1     -48.390  59.426   6.861  0.00  0.00    +0.019 A 
ATOM      5  C18 UNL     1     -49.278  59.703   7.917  0.00  0.00    +0.041 A 
ATOM      6  C19 UNL     1     -49.840  60.983   8.085  0.00  0.00    +0.172 A 
ENDROOT
BRANCH   4   7
ATOM      7  C6  UNL     1     -47.890  58.030   6.690  0.00  0.00    +0.086 C 
ATOM      8  N1  UNL     1     -48.566  57.165   6.004  0.00  0.00    -0.171 NA
ATOM      9  N2  UNL     1     -47.887  55.950   5.952  0.00  0.00    -0.222 N 
ATOM     10  C14 UNL     1     -46.779  56.035   6.610  0.00  0.00    +0.257 C 
ATOM     11  O2  UNL     1     -45.883  54.974   6.742  0.00  0.00    -0.270 OA
ATOM     12  C15 UNL     1     -46.592  57.411   7.189  0.00  0.00    +0.110 C 
ATOM     13  C16 UNL     1     -46.525  57.329   8.722  0.00  0.00    +0.015 C 
ATOM     14  C17 UNL     1     -45.344  58.065   6.568  0.00  0.00    +0.015 C 
BRANCH   9  15
ATOM     15  C7  UNL     1     -48.388  54.783   5.214  0.00  0.00    +0.108 C 
ATOM     16  C8  UNL     1     -49.864  54.533   5.595  0.00  0.00    +0.024 C 
ATOM     17  C9  UNL     1     -50.600  53.564   4.653  0.00  0.00    +0.002 C 
ATOM     18  C10 UNL     1     -51.279  54.295   3.483  0.00  0.00    +0.000 C 
ATOM     19  C11 UNL     1     -50.303  54.769   2.398  0.00  0.00    +0.000 C 
ATOM     20  C12 UNL     1     -49.211  55.715   2.921  0.00  0.00    +0.002 C 
ATOM     21  C13 UNL     1     -48.114  54.965   3.700  0.00  0.00    +0.024 C 
ENDBRANCH   9  15
ENDBRANCH   4   7
BRANCH   1  23
ATOM     22  C1  UNL     1     -49.683  64.450   6.664  0.00  0.00    +0.253 C 
ATOM     23  O1  UNL     1     -50.031  63.289   7.412  0.00  0.00    -0.468 OA
ENDBRANCH   1  23
BRANCH   6  24
ATOM     24  O3  UNL     1     -50.765  61.268   9.106  0.00  0.00    -0.472 OA
BRANCH  24  25
ATOM     25  C20 UNL     1     -52.082  61.786   8.909  0.00  0.00    +0.206 C 
BRANCH  25  26
ATOM     26  C21 UNL     1     -53.003  60.729   8.283  0.00  0.00    +0.051 C 
BRANCH  26  27
ATOM     27  C22 UNL     1     -53.911  61.356   7.220  0.00  0.00    +0.051 C 
BRANCH  27  28
ATOM     28  C23 UNL     1     -53.123  62.303   6.309  0.00  0.00    +0.206 C 
BRANCH  28  29
ATOM     29  O4  UNL     1     -53.881  63.484   6.041  0.00  0.00    -0.475 OA
BRANCH  29  30
ATOM     30  C24 UNL     1     -53.698  64.725   6.674  0.00  0.00    +0.139 A 
ATOM     31  C25 UNL     1     -53.273  64.843   8.011  0.00  0.00    +0.037 A 
ATOM     32  C26 UNL     1     -53.109  66.105   8.592  0.00  0.00    +0.006 A 
ATOM     33  C27 UNL     1     -53.361  67.272   7.851  0.00  0.00    +0.040 A 
ATOM     34  C29 UNL     1     -53.780  67.149   6.515  0.00  0.00    +0.006 A 
ATOM     35  C30 UNL     1     -53.946  65.886   5.936  0.00  0.00    +0.037 A 
BRANCH  33  36
ATOM     36  C28 UNL     1     -53.185  68.609   8.468  0.00  0.00    +0.208 A 
ATOM     37  N3  UNL     1     -52.992  68.842   9.785  0.00  0.00    -0.106 NA
ATOM     38  N4  UNL     1     -52.893  70.156   9.906  0.00  0.00    -0.021 NA
ATOM     39  N5  UNL     1     -53.014  70.720   8.717  0.00  0.00    -0.021 NA
ATOM     40  N6  UNL     1     -53.198  69.784   7.800  0.00  0.00    -0.106 NA
ENDBRANCH  33  36
ENDBRANCH  29  30
ENDBRANCH  28  29
ENDBRANCH  27  28
ENDBRANCH  26  27
ENDBRANCH  25  26
ENDBRANCH  24  25
ENDBRANCH   6  24
TORSDOF 11
ENDMDL
