MODEL 1
REMARK VINA RESULT:      -1.1      0.000      0.000
REMARK  Name = ./data/4wxx_site_bc02/pdb/l0c2.pdb
REMARK  11 active torsions:
REMARK  status: ('A' for Active; 'I' for Inactive)
REMARK    1  A    between atoms: O1_2  and  C2_3
REMARK    2  A    between atoms: C5_6  and  C6_7
REMARK    3  A    between atoms: N2_9  and  C7_10
REMARK    4  A    between atoms: C19_23  and  O3_24
REMARK    5  A    between atoms: O3_24  and  C20_25
REMARK    6  A    between atoms: C20_25  and  C21_26
REMARK    7  A    between atoms: C21_26  and  C22_27
REMARK    8  A    between atoms: C22_27  and  C23_28
REMARK    9  A    between atoms: C23_28  and  O4_29
REMARK   10  A    between atoms: O4_29  and  C24_30
REMARK   11  A    between atoms: C27_33  and  C28_34
REMARK                            x       y       z     vdW  Elec       q    Type
REMARK                         _______ _______ _______ _____ _____    ______ ____
ROOT
ATOM      1  C2  UNL     1     -80.932  49.324   9.576  0.00  0.00    +0.172 A 
ATOM      2  C3  UNL     1     -79.974  48.884   8.648  0.00  0.00    +0.040 A 
ATOM      3  C4  UNL     1     -80.177  49.065   7.278  0.00  0.00    +0.005 A 
ATOM      4  C5  UNL     1     -81.347  49.678   6.799  0.00  0.00    +0.019 A 
ATOM      5  C18 UNL     1     -82.305  50.112   7.736  0.00  0.00    +0.041 A 
ATOM      6  C19 UNL     1     -82.100  49.948   9.120  0.00  0.00    +0.172 A 
ENDROOT
BRANCH   4   7
ATOM      7  C6  UNL     1     -81.600  49.887   5.341  0.00  0.00    +0.086 C 
ATOM      8  N1  UNL     1     -82.796  49.804   4.853  0.00  0.00    -0.171 NA
ATOM      9  N2  UNL     1     -82.777  50.069   3.485  0.00  0.00    -0.222 N 
ATOM     10  C14 UNL     1     -81.571  50.339   3.105  0.00  0.00    +0.257 C 
ATOM     11  O2  UNL     1     -81.238  50.677   1.794  0.00  0.00    -0.270 OA
ATOM     12  C15 UNL     1     -80.602  50.241   4.247  0.00  0.00    +0.110 C 
ATOM     13  C16 UNL     1     -79.927  51.603   4.477  0.00  0.00    +0.015 C 
ATOM     14  C17 UNL     1     -79.596  49.111   3.964  0.00  0.00    +0.015 C 
BRANCH   9  15
ATOM     15  C7  UNL     1     -83.995  50.072   2.661  0.00  0.00    +0.108 C 
ATOM     16  C8  UNL     1     -83.695  50.715   1.289  0.00  0.00    +0.024 C 
ATOM     17  C9  UNL     1     -84.949  51.166   0.530  0.00  0.00    +0.002 C 
ATOM     18  C10 UNL     1     -85.946  50.030   0.251  0.00  0.00    +0.000 C 
ATOM     19  C11 UNL     1     -86.747  49.640   1.504  0.00  0.00    +0.000 C 
ATOM     20  C12 UNL     1     -86.083  48.554   2.372  0.00  0.00    +0.002 C 
ATOM     21  C13 UNL     1     -84.552  48.636   2.513  0.00  0.00    +0.024 C 
ENDBRANCH   9  15
ENDBRANCH   4   7
BRANCH   1  23
ATOM     22  C1  UNL     1     -79.883  48.210  11.558  0.00  0.00    +0.253 C 
ATOM     23  O1  UNL     1     -80.758  49.162  10.960  0.00  0.00    -0.468 OA
ENDBRANCH   1  23
BRANCH   6  24
ATOM     24  O3  UNL     1     -83.030  50.389  10.078  0.00  0.00    -0.472 OA
BRANCH  24  25
ATOM     25  C20 UNL     1     -84.449  50.409   9.918  0.00  0.00    +0.206 C 
BRANCH  25  26
ATOM     26  C21 UNL     1     -84.953  51.847   9.734  0.00  0.00    +0.051 C 
BRANCH  26  27
ATOM     27  C22 UNL     1     -86.393  51.901   9.202  0.00  0.00    +0.051 C 
BRANCH  27  28
ATOM     28  C23 UNL     1     -87.387  52.420  10.249  0.00  0.00    +0.206 C 
BRANCH  28  29
ATOM     29  O4  UNL     1     -88.383  51.435  10.521  0.00  0.00    -0.475 OA
BRANCH  29  30
ATOM     30  C24 UNL     1     -88.669  50.892  11.784  0.00  0.00    +0.139 A 
ATOM     31  C25 UNL     1     -89.647  51.428  12.642  0.00  0.00    +0.037 A 
ATOM     32  C26 UNL     1     -89.893  50.842  13.888  0.00  0.00    +0.006 A 
ATOM     33  C27 UNL     1     -89.171  49.708  14.301  0.00  0.00    +0.040 A 
ATOM     34  C29 UNL     1     -88.195  49.178  13.440  0.00  0.00    +0.006 A 
ATOM     35  C30 UNL     1     -87.950  49.765  12.195  0.00  0.00    +0.037 A 
BRANCH  33  36
ATOM     36  C28 UNL     1     -89.438  49.082  15.619  0.00  0.00    +0.208 A 
ATOM     37  N3  UNL     1     -89.404  49.722  16.808  0.00  0.00    -0.106 NA
ATOM     38  N4  UNL     1     -89.693  48.807  17.718  0.00  0.00    -0.021 NA
ATOM     39  N5  UNL     1     -89.901  47.645  17.125  0.00  0.00    -0.021 NA
ATOM     40  N6  UNL     1     -89.749  47.782  15.818  0.00  0.00    -0.106 NA
ENDBRANCH  33  36
ENDBRANCH  29  30
ENDBRANCH  28  29
ENDBRANCH  27  28
ENDBRANCH  26  27
ENDBRANCH  25  26
ENDBRANCH  24  25
ENDBRANCH   6  24
TORSDOF 11
ENDMDL
