MODEL 1
REMARK VINA RESULT:      -6.9      0.000      0.000
REMARK  Name = ./data/4wxx_site_bc02/pdb/l1c2.pdb
REMARK  11 active torsions:
REMARK  status: ('A' for Active; 'I' for Inactive)
REMARK    1  A    between atoms: O1_2  and  C2_3
REMARK    2  A    between atoms: C5_6  and  C6_7
REMARK    3  A    between atoms: N2_9  and  C7_10
REMARK    4  A    between atoms: C22_26  and  O3_27
REMARK    5  A    between atoms: O3_27  and  C23_28
REMARK    6  A    between atoms: C23_28  and  C24_29
REMARK    7  A    between atoms: C24_29  and  C25_30
REMARK    8  A    between atoms: C25_30  and  C26_31
REMARK    9  A    between atoms: C26_31  and  O4_32
REMARK   10  A    between atoms: O4_32  and  C27_33
REMARK   11  A    between atoms: C30_36  and  C31_37
REMARK                            x       y       z     vdW  Elec       q    Type
REMARK                         _______ _______ _______ _____ _____    ______ ____
ROOT
ATOM      1  C2  UNL     1     -85.166  54.526  18.800  0.00  0.00    +0.172 A 
ATOM      2  C3  UNL     1     -84.300  55.498  18.262  0.00  0.00    +0.040 A 
ATOM      3  C4  UNL     1     -83.173  55.915  18.973  0.00  0.00    +0.005 A 
ATOM      4  C5  UNL     1     -82.882  55.355  20.224  0.00  0.00    +0.018 A 
ATOM      5  C21 UNL     1     -83.763  54.413  20.779  0.00  0.00    +0.041 A 
ATOM      6  C22 UNL     1     -84.896  53.980  20.066  0.00  0.00    +0.172 A 
ENDROOT
BRANCH   4   7
ATOM      7  C6  UNL     1     -81.680  55.748  20.981  0.00  0.00    +0.079 C 
ATOM      8  N1  UNL     1     -81.836  56.556  21.990  0.00  0.00    -0.172 NA
ATOM      9  N2  UNL     1     -80.812  56.850  22.921  0.00  0.00    -0.222 N 
ATOM     10  C14 UNL     1     -79.564  56.514  22.663  0.00  0.00    +0.253 C 
ATOM     11  O2  UNL     1     -78.540  56.766  23.579  0.00  0.00    -0.271 OA
ATOM     12  C15 UNL     1     -79.217  55.871  21.341  0.00  0.00    +0.091 C 
ATOM     13  C16 UNL     1     -78.913  56.962  20.297  0.00  0.00    +0.035 C 
ATOM     14  C17 UNL     1     -78.912  56.448  18.882  0.00  0.00    -0.030 C 
ATOM     15  C18 UNL     1     -79.527  55.313  18.523  0.00  0.00    -0.030 C 
ATOM     16  C19 UNL     1     -80.061  54.328  19.526  0.00  0.00    +0.032 C 
ATOM     17  C20 UNL     1     -80.380  54.968  20.893  0.00  0.00    +0.056 C 
BRANCH   9  18
ATOM     18  C7  UNL     1     -81.237  57.460  24.198  0.00  0.00    +0.108 C 
ATOM     19  C8  UNL     1     -82.302  56.596  24.910  0.00  0.00    +0.024 C 
ATOM     20  C9  UNL     1     -82.722  57.145  26.285  0.00  0.00    +0.002 C 
ATOM     21  C10 UNL     1     -83.658  58.360  26.163  0.00  0.00    +0.000 C 
ATOM     22  C11 UNL     1     -82.939  59.722  26.088  0.00  0.00    +0.000 C 
ATOM     23  C12 UNL     1     -81.619  59.751  25.294  0.00  0.00    +0.002 C 
ATOM     24  C13 UNL     1     -81.650  58.937  23.988  0.00  0.00    +0.024 C 
ENDBRANCH   9  18
ENDBRANCH   4   7
BRANCH   1  26
ATOM     25  C1  UNL     1     -87.323  54.911  17.590  0.00  0.00    +0.253 C 
ATOM     26  O1  UNL     1     -86.296  54.067  18.104  0.00  0.00    -0.468 OA
ENDBRANCH   1  26
BRANCH   6  27
ATOM     27  O3  UNL     1     -85.767  52.999  20.572  0.00  0.00    -0.472 OA
BRANCH  27  28
ATOM     28  C23 UNL     1     -86.887  53.260  21.415  0.00  0.00    +0.206 C 
BRANCH  28  29
ATOM     29  C24 UNL     1     -86.486  53.106  22.882  0.00  0.00    +0.051 C 
BRANCH  29  30
ATOM     30  C25 UNL     1     -86.773  54.392  23.671  0.00  0.00    +0.051 C 
BRANCH  30  31
ATOM     31  C26 UNL     1     -85.529  55.286  23.748  0.00  0.00    +0.206 C 
BRANCH  31  32
ATOM     32  O4  UNL     1     -85.879  56.654  23.527  0.00  0.00    -0.475 OA
BRANCH  32  33
ATOM     33  C27 UNL     1     -85.872  57.304  22.280  0.00  0.00    +0.139 A 
ATOM     34  C28 UNL     1     -86.787  57.000  21.251  0.00  0.00    +0.037 A 
ATOM     35  C29 UNL     1     -86.710  57.657  20.020  0.00  0.00    +0.006 A 
ATOM     36  C30 UNL     1     -85.733  58.640  19.797  0.00  0.00    +0.040 A 
ATOM     37  C32 UNL     1     -84.833  58.952  20.829  0.00  0.00    +0.006 A 
ATOM     38  C33 UNL     1     -84.903  58.290  22.057  0.00  0.00    +0.037 A 
BRANCH  36  39
ATOM     39  C31 UNL     1     -85.655  59.339  18.496  0.00  0.00    +0.208 A 
ATOM     40  N3  UNL     1     -85.118  58.825  17.370  0.00  0.00    -0.106 NA
ATOM     41  N4  UNL     1     -85.239  59.768  16.452  0.00  0.00    -0.021 NA
ATOM     42  N5  UNL     1     -85.830  60.826  16.977  0.00  0.00    -0.021 NA
ATOM     43  N6  UNL     1     -86.102  60.591  18.250  0.00  0.00    -0.106 NA
ENDBRANCH  36  39
ENDBRANCH  32  33
ENDBRANCH  31  32
ENDBRANCH  30  31
ENDBRANCH  29  30
ENDBRANCH  28  29
ENDBRANCH  27  28
ENDBRANCH   6  27
TORSDOF 11
ENDMDL
MODEL 2
REMARK VINA RESULT:      -6.3      2.497      7.012
REMARK  Name = ./data/4wxx_site_bc02/pdb/l1c2.pdb
REMARK  11 active torsions:
REMARK  status: ('A' for Active; 'I' for Inactive)
REMARK    1  A    between atoms: O1_2  and  C2_3
REMARK    2  A    between atoms: C5_6  and  C6_7
REMARK    3  A    between atoms: N2_9  and  C7_10
REMARK    4  A    between atoms: C22_26  and  O3_27
REMARK    5  A    between atoms: O3_27  and  C23_28
REMARK    6  A    between atoms: C23_28  and  C24_29
REMARK    7  A    between atoms: C24_29  and  C25_30
REMARK    8  A    between atoms: C25_30  and  C26_31
REMARK    9  A    between atoms: C26_31  and  O4_32
REMARK   10  A    between atoms: O4_32  and  C27_33
REMARK   11  A    between atoms: C30_36  and  C31_37
REMARK                            x       y       z     vdW  Elec       q    Type
REMARK                         _______ _______ _______ _____ _____    ______ ____
ROOT
ATOM      1  C2  UNL     1     -85.376  52.436  20.520  0.00  0.00    +0.172 A 
ATOM      2  C3  UNL     1     -86.668  52.859  20.889  0.00  0.00    +0.040 A 
ATOM      3  C4  UNL     1     -86.884  54.161  21.343  0.00  0.00    +0.005 A 
ATOM      4  C5  UNL     1     -85.818  55.067  21.421  0.00  0.00    +0.018 A 
ATOM      5  C21 UNL     1     -84.523  54.637  21.091  0.00  0.00    +0.041 A 
ATOM      6  C22 UNL     1     -84.297  53.329  20.622  0.00  0.00    +0.172 A 
ENDROOT
BRANCH   4   7
ATOM      7  C6  UNL     1     -86.022  56.459  21.862  0.00  0.00    +0.079 C 
ATOM      8  N1  UNL     1     -86.056  57.386  20.949  0.00  0.00    -0.172 NA
ATOM      9  N2  UNL     1     -86.447  58.721  21.205  0.00  0.00    -0.222 N 
ATOM     10  C14 UNL     1     -86.552  59.155  22.445  0.00  0.00    +0.253 C 
ATOM     11  O2  UNL     1     -86.965  60.460  22.724  0.00  0.00    -0.271 OA
ATOM     12  C15 UNL     1     -86.193  58.243  23.593  0.00  0.00    +0.091 C 
ATOM     13  C16 UNL     1     -84.689  58.368  23.906  0.00  0.00    +0.035 C 
ATOM     14  C17 UNL     1     -84.167  57.256  24.774  0.00  0.00    -0.030 C 
ATOM     15  C18 UNL     1     -84.792  56.077  24.897  0.00  0.00    -0.030 C 
ATOM     16  C19 UNL     1     -86.186  55.842  24.382  0.00  0.00    +0.032 C 
ATOM     17  C20 UNL     1     -86.577  56.797  23.235  0.00  0.00    +0.056 C 
BRANCH   9  18
ATOM     18  C7  UNL     1     -86.801  59.542  20.028  0.00  0.00    +0.108 C 
ATOM     19  C8  UNL     1     -87.222  58.660  18.831  0.00  0.00    +0.024 C 
ATOM     20  C9  UNL     1     -87.679  59.466  17.603  0.00  0.00    +0.002 C 
ATOM     21  C10 UNL     1     -86.494  60.090  16.845  0.00  0.00    +0.000 C 
ATOM     22  C11 UNL     1     -86.083  61.493  17.334  0.00  0.00    +0.000 C 
ATOM     23  C12 UNL     1     -86.170  61.737  18.853  0.00  0.00    +0.002 C 
ATOM     24  C13 UNL     1     -85.676  60.557  19.710  0.00  0.00    +0.024 C 
ENDBRANCH   9  18
ENDBRANCH   4   7
BRANCH   1  26
ATOM     25  C1  UNL     1     -86.031  50.392  19.231  0.00  0.00    +0.253 C 
ATOM     26  O1  UNL     1     -85.124  51.141  20.038  0.00  0.00    -0.468 OA
ENDBRANCH   1  26
BRANCH   6  27
ATOM     27  O3  UNL     1     -83.021  52.886  20.232  0.00  0.00    -0.472 OA
BRANCH  27  28
ATOM     28  C23 UNL     1     -82.451  53.079  18.938  0.00  0.00    +0.206 C 
BRANCH  28  29
ATOM     29  C24 UNL     1     -81.291  54.071  19.019  0.00  0.00    +0.051 C 
BRANCH  29  30
ATOM     30  C25 UNL     1     -80.000  53.376  19.475  0.00  0.00    +0.051 C 
BRANCH  30  31
ATOM     31  C26 UNL     1     -78.898  54.396  19.786  0.00  0.00    +0.206 C 
BRANCH  31  32
ATOM     32  O4  UNL     1     -79.435  55.720  19.823  0.00  0.00    -0.475 OA
BRANCH  32  33
ATOM     33  C27 UNL     1     -79.737  56.443  20.992  0.00  0.00    +0.139 A 
ATOM     34  C28 UNL     1     -80.872  56.179  21.785  0.00  0.00    +0.037 A 
ATOM     35  C29 UNL     1     -81.138  56.953  22.918  0.00  0.00    +0.006 A 
ATOM     36  C30 UNL     1     -80.269  57.991  23.291  0.00  0.00    +0.040 A 
ATOM     37  C32 UNL     1     -79.131  58.242  22.507  0.00  0.00    +0.006 A 
ATOM     38  C33 UNL     1     -78.870  57.474  21.370  0.00  0.00    +0.037 A 
BRANCH  36  39
ATOM     39  C31 UNL     1     -80.548  58.806  24.493  0.00  0.00    +0.208 A 
ATOM     40  N3  UNL     1     -80.506  58.355  25.764  0.00  0.00    -0.106 NA
ATOM     41  N4  UNL     1     -80.827  59.388  26.523  0.00  0.00    -0.021 NA
ATOM     42  N5  UNL     1     -81.055  60.443  25.762  0.00  0.00    -0.021 NA
ATOM     43  N6  UNL     1     -80.890  60.114  24.492  0.00  0.00    -0.106 NA
ENDBRANCH  36  39
ENDBRANCH  32  33
ENDBRANCH  31  32
ENDBRANCH  30  31
ENDBRANCH  29  30
ENDBRANCH  28  29
ENDBRANCH  27  28
ENDBRANCH   6  27
TORSDOF 11
ENDMDL
MODEL 3
REMARK VINA RESULT:      -6.2      2.993      6.820
REMARK  Name = ./data/4wxx_site_bc02/pdb/l1c2.pdb
REMARK  11 active torsions:
REMARK  status: ('A' for Active; 'I' for Inactive)
REMARK    1  A    between atoms: O1_2  and  C2_3
REMARK    2  A    between atoms: C5_6  and  C6_7
REMARK    3  A    between atoms: N2_9  and  C7_10
REMARK    4  A    between atoms: C22_26  and  O3_27
REMARK    5  A    between atoms: O3_27  and  C23_28
REMARK    6  A    between atoms: C23_28  and  C24_29
REMARK    7  A    between atoms: C24_29  and  C25_30
REMARK    8  A    between atoms: C25_30  and  C26_31
REMARK    9  A    between atoms: C26_31  and  O4_32
REMARK   10  A    between atoms: O4_32  and  C27_33
REMARK   11  A    between atoms: C30_36  and  C31_37
REMARK                            x       y       z     vdW  Elec       q    Type
REMARK                         _______ _______ _______ _____ _____    ______ ____
ROOT
ATOM      1  C2  UNL     1     -87.150  54.882  20.073  0.00  0.00    +0.172 A 
ATOM      2  C3  UNL     1     -86.710  54.047  21.119  0.00  0.00    +0.040 A 
ATOM      3  C4  UNL     1     -86.091  54.591  22.246  0.00  0.00    +0.005 A 
ATOM      4  C5  UNL     1     -85.916  55.976  22.355  0.00  0.00    +0.018 A 
ATOM      5  C21 UNL     1     -86.318  56.807  21.298  0.00  0.00    +0.041 A 
ATOM      6  C22 UNL     1     -86.953  56.269  20.162  0.00  0.00    +0.172 A 
ENDROOT
BRANCH   4   7
ATOM      7  C6  UNL     1     -85.298  56.582  23.549  0.00  0.00    +0.079 C 
ATOM      8  N1  UNL     1     -83.998  56.643  23.594  0.00  0.00    -0.172 NA
ATOM      9  N2  UNL     1     -83.284  57.376  24.572  0.00  0.00    -0.222 N 
ATOM     10  C14 UNL     1     -83.902  57.826  25.645  0.00  0.00    +0.253 C 
ATOM     11  O2  UNL     1     -83.227  58.576  26.610  0.00  0.00    -0.271 OA
ATOM     12  C15 UNL     1     -85.361  57.504  25.862  0.00  0.00    +0.091 C 
ATOM     13  C16 UNL     1     -85.492  56.165  26.613  0.00  0.00    +0.035 C 
ATOM     14  C17 UNL     1     -86.880  55.585  26.559  0.00  0.00    -0.030 C 
ATOM     15  C18 UNL     1     -87.775  55.933  25.625  0.00  0.00    -0.030 C 
ATOM     16  C19 UNL     1     -87.569  57.102  24.700  0.00  0.00    +0.032 C 
ATOM     17  C20 UNL     1     -86.082  57.464  24.504  0.00  0.00    +0.056 C 
BRANCH   9  18
ATOM     18  C7  UNL     1     -81.866  57.666  24.273  0.00  0.00    +0.108 C 
ATOM     19  C8  UNL     1     -81.699  58.277  22.864  0.00  0.00    +0.024 C 
ATOM     20  C9  UNL     1     -80.250  58.673  22.532  0.00  0.00    +0.002 C 
ATOM     21  C10 UNL     1     -79.375  57.450  22.206  0.00  0.00    +0.000 C 
ATOM     22  C11 UNL     1     -78.684  56.809  23.425  0.00  0.00    +0.000 C 
ATOM     23  C12 UNL     1     -79.500  56.777  24.731  0.00  0.00    +0.002 C 
ATOM     24  C13 UNL     1     -80.986  56.420  24.538  0.00  0.00    +0.024 C 
ENDBRANCH   9  18
ENDBRANCH   4   7
BRANCH   1  26
ATOM     25  C1  UNL     1     -87.534  53.093  18.364  0.00  0.00    +0.253 C 
ATOM     26  O1  UNL     1     -87.797  54.373  18.935  0.00  0.00    -0.468 OA
ENDBRANCH   1  26
BRANCH   6  27
ATOM     27  O3  UNL     1     -87.417  57.081  19.111  0.00  0.00    -0.472 OA
BRANCH  27  28
ATOM     28  C23 UNL     1     -86.611  57.997  18.372  0.00  0.00    +0.206 C 
BRANCH  28  29
ATOM     29  C24 UNL     1     -85.656  57.233  17.455  0.00  0.00    +0.051 C 
BRANCH  29  30
ATOM     30  C25 UNL     1     -84.217  57.285  17.989  0.00  0.00    +0.051 C 
BRANCH  30  31
ATOM     31  C26 UNL     1     -83.777  55.922  18.538  0.00  0.00    +0.206 C 
BRANCH  31  32
ATOM     32  O4  UNL     1     -82.845  56.087  19.608  0.00  0.00    -0.475 OA
BRANCH  32  33
ATOM     33  C27 UNL     1     -81.617  55.413  19.728  0.00  0.00    +0.139 A 
ATOM     34  C28 UNL     1     -80.441  55.839  19.076  0.00  0.00    +0.037 A 
ATOM     35  C29 UNL     1     -79.257  55.108  19.207  0.00  0.00    +0.006 A 
ATOM     36  C30 UNL     1     -79.217  53.952  20.002  0.00  0.00    +0.040 A 
ATOM     37  C32 UNL     1     -80.386  53.539  20.663  0.00  0.00    +0.006 A 
ATOM     38  C33 UNL     1     -81.572  54.263  20.525  0.00  0.00    +0.037 A 
BRANCH  36  39
ATOM     39  C31 UNL     1     -77.962  53.182  20.144  0.00  0.00    +0.208 A 
ATOM     40  N3  UNL     1     -77.311  52.566  19.136  0.00  0.00    -0.106 NA
ATOM     41  N4  UNL     1     -76.256  51.992  19.688  0.00  0.00    -0.021 NA
ATOM     42  N5  UNL     1     -76.244  52.240  20.985  0.00  0.00    -0.021 NA
ATOM     43  N6  UNL     1     -77.294  52.978  21.301  0.00  0.00    -0.106 NA
ENDBRANCH  36  39
ENDBRANCH  32  33
ENDBRANCH  31  32
ENDBRANCH  30  31
ENDBRANCH  29  30
ENDBRANCH  28  29
ENDBRANCH  27  28
ENDBRANCH   6  27
TORSDOF 11
ENDMDL
MODEL 4
REMARK VINA RESULT:      -5.5      2.928      6.264
REMARK  Name = ./data/4wxx_site_bc02/pdb/l1c2.pdb
REMARK  11 active torsions:
REMARK  status: ('A' for Active; 'I' for Inactive)
REMARK    1  A    between atoms: O1_2  and  C2_3
REMARK    2  A    between atoms: C5_6  and  C6_7
REMARK    3  A    between atoms: N2_9  and  C7_10
REMARK    4  A    between atoms: C22_26  and  O3_27
REMARK    5  A    between atoms: O3_27  and  C23_28
REMARK    6  A    between atoms: C23_28  and  C24_29
REMARK    7  A    between atoms: C24_29  and  C25_30
REMARK    8  A    between atoms: C25_30  and  C26_31
REMARK    9  A    between atoms: C26_31  and  O4_32
REMARK   10  A    between atoms: O4_32  and  C27_33
REMARK   11  A    between atoms: C30_36  and  C31_37
REMARK                            x       y       z     vdW  Elec       q    Type
REMARK                         _______ _______ _______ _____ _____    ______ ____
ROOT
ATOM      1  C2  UNL     1     -80.378  53.921  19.170  0.00  0.00    +0.172 A 
ATOM      2  C3  UNL     1     -81.476  53.040  19.229  0.00  0.00    +0.040 A 
ATOM      3  C4  UNL     1     -82.737  53.505  19.606  0.00  0.00    +0.005 A 
ATOM      4  C5  UNL     1     -82.927  54.859  19.913  0.00  0.00    +0.018 A 
ATOM      5  C21 UNL     1     -81.828  55.731  19.892  0.00  0.00    +0.041 A 
ATOM      6  C22 UNL     1     -80.554  55.274  19.504  0.00  0.00    +0.172 A 
ENDROOT
BRANCH   4   7
ATOM      7  C6  UNL     1     -84.256  55.385  20.279  0.00  0.00    +0.079 C 
ATOM      8  N1  UNL     1     -84.800  54.946  21.377  0.00  0.00    -0.172 NA
ATOM      9  N2  UNL     1     -85.964  55.510  21.952  0.00  0.00    -0.222 N 
ATOM     10  C14 UNL     1     -86.704  56.353  21.259  0.00  0.00    +0.253 C 
ATOM     11  O2  UNL     1     -87.840  56.945  21.813  0.00  0.00    -0.271 OA
ATOM     12  C15 UNL     1     -86.344  56.666  19.826  0.00  0.00    +0.091 C 
ATOM     13  C16 UNL     1     -87.011  55.643  18.887  0.00  0.00    +0.035 C 
ATOM     14  C17 UNL     1     -86.434  55.647  17.497  0.00  0.00    -0.030 C 
ATOM     15  C18 UNL     1     -85.219  56.137  17.218  0.00  0.00    -0.030 C 
ATOM     16  C19 UNL     1     -84.423  56.945  18.207  0.00  0.00    +0.032 C 
ATOM     17  C20 UNL     1     -84.813  56.660  19.673  0.00  0.00    +0.056 C 
BRANCH   9  18
ATOM     18  C7  UNL     1     -86.234  55.169  23.364  0.00  0.00    +0.108 C 
ATOM     19  C8  UNL     1     -85.150  55.747  24.301  0.00  0.00    +0.024 C 
ATOM     20  C9  UNL     1     -85.426  55.490  25.793  0.00  0.00    +0.002 C 
ATOM     21  C10 UNL     1     -85.127  54.035  26.196  0.00  0.00    +0.000 C 
ATOM     22  C11 UNL     1     -86.316  53.066  26.039  0.00  0.00    +0.000 C 
ATOM     23  C12 UNL     1     -87.227  53.300  24.819  0.00  0.00    +0.002 C 
ATOM     24  C13 UNL     1     -86.471  53.647  23.523  0.00  0.00    +0.024 C 
ENDBRANCH   9  18
ENDBRANCH   4   7
BRANCH   1  26
ATOM     25  C1  UNL     1     -78.201  52.766  19.606  0.00  0.00    +0.253 C 
ATOM     26  O1  UNL     1     -79.100  53.494  18.774  0.00  0.00    -0.468 OA
ENDBRANCH   1  26
BRANCH   6  27
ATOM     27  O3  UNL     1     -79.446  56.135  19.421  0.00  0.00    -0.472 OA
BRANCH  27  28
ATOM     28  C23 UNL     1     -79.017  57.014  20.459  0.00  0.00    +0.206 C 
BRANCH  28  29
ATOM     29  C24 UNL     1     -78.280  56.226  21.542  0.00  0.00    +0.051 C 
BRANCH  29  30
ATOM     30  C25 UNL     1     -78.907  56.467  22.924  0.00  0.00    +0.051 C 
BRANCH  30  31
ATOM     31  C26 UNL     1     -79.872  57.658  22.897  0.00  0.00    +0.206 C 
BRANCH  31  32
ATOM     32  O4  UNL     1     -81.228  57.208  22.907  0.00  0.00    -0.475 OA
BRANCH  32  33
ATOM     33  C27 UNL     1     -82.325  57.942  23.394  0.00  0.00    +0.139 A 
ATOM     34  C28 UNL     1     -82.462  58.308  24.748  0.00  0.00    +0.037 A 
ATOM     35  C29 UNL     1     -83.592  59.010  25.180  0.00  0.00    +0.006 A 
ATOM     36  C30 UNL     1     -84.595  59.374  24.267  0.00  0.00    +0.040 A 
ATOM     37  C32 UNL     1     -84.448  59.020  22.916  0.00  0.00    +0.006 A 
ATOM     38  C33 UNL     1     -83.324  58.312  22.486  0.00  0.00    +0.037 A 
BRANCH  36  39
ATOM     39  C31 UNL     1     -85.788  60.121  24.723  0.00  0.00    +0.208 A 
ATOM     40  N3  UNL     1     -85.926  60.699  25.934  0.00  0.00    -0.106 NA
ATOM     41  N4  UNL     1     -87.130  61.245  25.937  0.00  0.00    -0.021 NA
ATOM     42  N5  UNL     1     -87.720  61.023  24.776  0.00  0.00    -0.021 NA
ATOM     43  N6  UNL     1     -86.910  60.324  23.998  0.00  0.00    -0.106 NA
ENDBRANCH  36  39
ENDBRANCH  32  33
ENDBRANCH  31  32
ENDBRANCH  30  31
ENDBRANCH  29  30
ENDBRANCH  28  29
ENDBRANCH  27  28
ENDBRANCH   6  27
TORSDOF 11
ENDMDL
MODEL 5
REMARK VINA RESULT:      -5.2      2.906      6.917
REMARK  Name = ./data/4wxx_site_bc02/pdb/l1c2.pdb
REMARK  11 active torsions:
REMARK  status: ('A' for Active; 'I' for Inactive)
REMARK    1  A    between atoms: O1_2  and  C2_3
REMARK    2  A    between atoms: C5_6  and  C6_7
REMARK    3  A    between atoms: N2_9  and  C7_10
REMARK    4  A    between atoms: C22_26  and  O3_27
REMARK    5  A    between atoms: O3_27  and  C23_28
REMARK    6  A    between atoms: C23_28  and  C24_29
REMARK    7  A    between atoms: C24_29  and  C25_30
REMARK    8  A    between atoms: C25_30  and  C26_31
REMARK    9  A    between atoms: C26_31  and  O4_32
REMARK   10  A    between atoms: O4_32  and  C27_33
REMARK   11  A    between atoms: C30_36  and  C31_37
REMARK                            x       y       z     vdW  Elec       q    Type
REMARK                         _______ _______ _______ _____ _____    ______ ____
ROOT
ATOM      1  C2  UNL     1     -80.346  54.001  18.885  0.00  0.00    +0.172 A 
ATOM      2  C3  UNL     1     -81.484  53.182  19.016  0.00  0.00    +0.040 A 
ATOM      3  C4  UNL     1     -82.680  53.705  19.512  0.00  0.00    +0.005 A 
ATOM      4  C5  UNL     1     -82.764  55.057  19.869  0.00  0.00    +0.018 A 
ATOM      5  C21 UNL     1     -81.621  55.867  19.776  0.00  0.00    +0.041 A 
ATOM      6  C22 UNL     1     -80.413  55.351  19.268  0.00  0.00    +0.172 A 
ENDROOT
BRANCH   4   7
ATOM      7  C6  UNL     1     -84.023  55.646  20.361  0.00  0.00    +0.079 C 
ATOM      8  N1  UNL     1     -84.346  55.435  21.604  0.00  0.00    -0.172 NA
ATOM      9  N2  UNL     1     -85.407  56.103  22.260  0.00  0.00    -0.222 N 
ATOM     10  C14 UNL     1     -86.290  56.790  21.562  0.00  0.00    +0.253 C 
ATOM     11  O2  UNL     1     -87.329  57.481  22.188  0.00  0.00    -0.271 OA
ATOM     12  C15 UNL     1     -86.204  56.811  20.055  0.00  0.00    +0.091 C 
ATOM     13  C16 UNL     1     -86.991  55.621  19.473  0.00  0.00    +0.035 C 
ATOM     14  C17 UNL     1     -86.673  55.347  18.028  0.00  0.00    -0.030 C 
ATOM     15  C18 UNL     1     -85.546  55.772  17.440  0.00  0.00    -0.030 C 
ATOM     16  C19 UNL     1     -84.616  56.760  18.089  0.00  0.00    +0.032 C 
ATOM     17  C20 UNL     1     -84.726  56.775  19.628  0.00  0.00    +0.056 C 
BRANCH   9  18
ATOM     18  C7  UNL     1     -85.407  56.050  23.737  0.00  0.00    +0.108 C 
ATOM     19  C8  UNL     1     -84.036  56.462  24.316  0.00  0.00    +0.024 C 
ATOM     20  C9  UNL     1     -84.003  56.503  25.854  0.00  0.00    +0.002 C 
ATOM     21  C10 UNL     1     -83.943  55.094  26.470  0.00  0.00    +0.000 C 
ATOM     22  C11 UNL     1     -85.318  54.449  26.738  0.00  0.00    +0.000 C 
ATOM     23  C12 UNL     1     -86.415  54.729  25.695  0.00  0.00    +0.002 C 
ATOM     24  C13 UNL     1     -85.926  54.680  24.235  0.00  0.00    +0.024 C 
ENDBRANCH   9  18
ENDBRANCH   4   7
BRANCH   1  26
ATOM     25  C1  UNL     1     -78.484  52.329  18.822  0.00  0.00    +0.253 C 
ATOM     26  O1  UNL     1     -79.133  53.515  18.370  0.00  0.00    -0.468 OA
ENDBRANCH   1  26
BRANCH   6  27
ATOM     27  O3  UNL     1     -79.267  56.150  19.112  0.00  0.00    -0.472 OA
BRANCH  27  28
ATOM     28  C23 UNL     1     -78.468  56.647  20.184  0.00  0.00    +0.206 C 
BRANCH  28  29
ATOM     29  C24 UNL     1     -77.762  55.490  20.891  0.00  0.00    +0.051 C 
BRANCH  29  30
ATOM     30  C25 UNL     1     -77.726  55.710  22.411  0.00  0.00    +0.051 C 
BRANCH  30  31
ATOM     31  C26 UNL     1     -78.645  56.865  22.827  0.00  0.00    +0.206 C 
BRANCH  31  32
ATOM     32  O4  UNL     1     -79.107  56.682  24.167  0.00  0.00    -0.475 OA
BRANCH  32  33
ATOM     33  C27 UNL     1     -80.008  57.528  24.839  0.00  0.00    +0.139 A 
ATOM     34  C28 UNL     1     -80.830  58.459  24.171  0.00  0.00    +0.037 A 
ATOM     35  C29 UNL     1     -81.681  59.297  24.897  0.00  0.00    +0.006 A 
ATOM     36  C30 UNL     1     -81.743  59.211  26.297  0.00  0.00    +0.040 A 
ATOM     37  C32 UNL     1     -80.934  58.272  26.958  0.00  0.00    +0.006 A 
ATOM     38  C33 UNL     1     -80.076  57.440  26.234  0.00  0.00    +0.037 A 
BRANCH  36  39
ATOM     39  C31 UNL     1     -82.648  60.094  27.064  0.00  0.00    +0.208 A 
ATOM     40  N3  UNL     1     -82.768  61.426  26.885  0.00  0.00    -0.106 NA
ATOM     41  N4  UNL     1     -83.664  61.828  27.770  0.00  0.00    -0.021 NA
ATOM     42  N5  UNL     1     -84.091  60.793  28.470  0.00  0.00    -0.021 NA
ATOM     43  N6  UNL     1     -83.477  59.698  28.055  0.00  0.00    -0.106 NA
ENDBRANCH  36  39
ENDBRANCH  32  33
ENDBRANCH  31  32
ENDBRANCH  30  31
ENDBRANCH  29  30
ENDBRANCH  28  29
ENDBRANCH  27  28
ENDBRANCH   6  27
TORSDOF 11
ENDMDL
MODEL 6
REMARK VINA RESULT:      -4.1      2.864      6.810
REMARK  Name = ./data/4wxx_site_bc02/pdb/l1c2.pdb
REMARK  11 active torsions:
REMARK  status: ('A' for Active; 'I' for Inactive)
REMARK    1  A    between atoms: O1_2  and  C2_3
REMARK    2  A    between atoms: C5_6  and  C6_7
REMARK    3  A    between atoms: N2_9  and  C7_10
REMARK    4  A    between atoms: C22_26  and  O3_27
REMARK    5  A    between atoms: O3_27  and  C23_28
REMARK    6  A    between atoms: C23_28  and  C24_29
REMARK    7  A    between atoms: C24_29  and  C25_30
REMARK    8  A    between atoms: C25_30  and  C26_31
REMARK    9  A    between atoms: C26_31  and  O4_32
REMARK   10  A    between atoms: O4_32  and  C27_33
REMARK   11  A    between atoms: C30_36  and  C31_37
REMARK                            x       y       z     vdW  Elec       q    Type
REMARK                         _______ _______ _______ _____ _____    ______ ____
ROOT
ATOM      1  C2  UNL     1     -81.394  53.955  19.191  0.00  0.00    +0.172 A 
ATOM      2  C3  UNL     1     -82.616  53.467  19.695  0.00  0.00    +0.040 A 
ATOM      3  C4  UNL     1     -83.723  54.310  19.805  0.00  0.00    +0.005 A 
ATOM      4  C5  UNL     1     -83.634  55.648  19.398  0.00  0.00    +0.018 A 
ATOM      5  C21 UNL     1     -82.408  56.147  18.932  0.00  0.00    +0.041 A 
ATOM      6  C22 UNL     1     -81.289  55.302  18.808  0.00  0.00    +0.172 A 
ENDROOT
BRANCH   4   7
ATOM      7  C6  UNL     1     -84.798  56.552  19.469  0.00  0.00    +0.079 C 
ATOM      8  N1  UNL     1     -85.009  57.181  20.588  0.00  0.00    -0.172 NA
ATOM      9  N2  UNL     1     -85.955  58.225  20.731  0.00  0.00    -0.222 N 
ATOM     10  C14 UNL     1     -86.854  58.437  19.792  0.00  0.00    +0.253 C 
ATOM     11  O2  UNL     1     -87.779  59.479  19.896  0.00  0.00    -0.271 OA
ATOM     12  C15 UNL     1     -86.916  57.525  18.591  0.00  0.00    +0.091 C 
ATOM     13  C16 UNL     1     -87.834  56.325  18.896  0.00  0.00    +0.035 C 
ATOM     14  C17 UNL     1     -87.679  55.193  17.917  0.00  0.00    -0.030 C 
ATOM     15  C18 UNL     1     -86.590  55.041  17.151  0.00  0.00    -0.030 C 
ATOM     16  C19 UNL     1     -85.537  56.107  17.017  0.00  0.00    +0.032 C 
ATOM     17  C20 UNL     1     -85.494  57.069  18.223  0.00  0.00    +0.056 C 
BRANCH   9  18
ATOM     18  C7  UNL     1     -85.812  59.084  21.925  0.00  0.00    +0.108 C 
ATOM     19  C8  UNL     1     -84.478  58.818  22.656  0.00  0.00    +0.024 C 
ATOM     20  C9  UNL     1     -84.241  59.744  23.862  0.00  0.00    +0.002 C 
ATOM     21  C10 UNL     1     -85.093  59.341  25.079  0.00  0.00    +0.000 C 
ATOM     22  C11 UNL     1     -86.488  59.996  25.133  0.00  0.00    +0.000 C 
ATOM     23  C12 UNL     1     -87.207  60.179  23.783  0.00  0.00    +0.002 C 
ATOM     24  C13 UNL     1     -87.067  58.980  22.826  0.00  0.00    +0.024 C 
ENDBRANCH   9  18
ENDBRANCH   4   7
BRANCH   1  26
ATOM     25  C1  UNL     1     -79.362  52.811  20.099  0.00  0.00    +0.253 C 
ATOM     26  O1  UNL     1     -80.266  53.131  19.045  0.00  0.00    -0.468 OA
ENDBRANCH   1  26
BRANCH   6  27
ATOM     27  O3  UNL     1     -80.063  55.758  18.293  0.00  0.00    -0.472 OA
BRANCH  27  28
ATOM     28  C23 UNL     1     -79.157  56.617  18.984  0.00  0.00    +0.206 C 
BRANCH  28  29
ATOM     29  C24 UNL     1     -78.939  56.111  20.410  0.00  0.00    +0.051 C 
BRANCH  29  30
ATOM     30  C25 UNL     1     -78.052  57.076  21.210  0.00  0.00    +0.051 C 
BRANCH  30  31
ATOM     31  C26 UNL     1     -78.809  57.666  22.405  0.00  0.00    +0.206 C 
BRANCH  31  32
ATOM     32  O4  UNL     1     -80.221  57.593  22.193  0.00  0.00    -0.475 OA
BRANCH  32  33
ATOM     33  C27 UNL     1     -81.165  57.170  23.146  0.00  0.00    +0.139 A 
ATOM     34  C28 UNL     1     -81.124  57.571  24.497  0.00  0.00    +0.037 A 
ATOM     35  C29 UNL     1     -82.072  57.091  25.406  0.00  0.00    +0.006 A 
ATOM     36  C30 UNL     1     -83.087  56.218  24.982  0.00  0.00    +0.040 A 
ATOM     37  C32 UNL     1     -83.134  55.833  23.632  0.00  0.00    +0.006 A 
ATOM     38  C33 UNL     1     -82.182  56.305  22.725  0.00  0.00    +0.037 A 
BRANCH  36  39
ATOM     39  C31 UNL     1     -84.093  55.715  25.942  0.00  0.00    +0.208 A 
ATOM     40  N3  UNL     1     -83.846  54.836  26.935  0.00  0.00    -0.106 NA
ATOM     41  N4  UNL     1     -85.004  54.647  27.544  0.00  0.00    -0.021 NA
ATOM     42  N5  UNL     1     -85.936  55.379  26.961  0.00  0.00    -0.021 NA
ATOM     43  N6  UNL     1     -85.401  56.056  25.959  0.00  0.00    -0.106 NA
ENDBRANCH  36  39
ENDBRANCH  32  33
ENDBRANCH  31  32
ENDBRANCH  30  31
ENDBRANCH  29  30
ENDBRANCH  28  29
ENDBRANCH  27  28
ENDBRANCH   6  27
TORSDOF 11
ENDMDL
