MODEL 1
REMARK VINA RESULT:      -7.1      0.000      0.000
REMARK  Name = ./data/4wxx_site_bc02/pdb/l1c2.pdb
REMARK  11 active torsions:
REMARK  status: ('A' for Active; 'I' for Inactive)
REMARK    1  A    between atoms: O1_2  and  C2_3
REMARK    2  A    between atoms: C5_6  and  C6_7
REMARK    3  A    between atoms: N2_9  and  C7_10
REMARK    4  A    between atoms: C22_26  and  O3_27
REMARK    5  A    between atoms: O3_27  and  C23_28
REMARK    6  A    between atoms: C23_28  and  C24_29
REMARK    7  A    between atoms: C24_29  and  C25_30
REMARK    8  A    between atoms: C25_30  and  C26_31
REMARK    9  A    between atoms: C26_31  and  O4_32
REMARK   10  A    between atoms: O4_32  and  C27_33
REMARK   11  A    between atoms: C30_36  and  C31_37
REMARK                            x       y       z     vdW  Elec       q    Type
REMARK                         _______ _______ _______ _____ _____    ______ ____
ROOT
ATOM      1  C2  UNL     1     -42.470  35.005  -5.035  0.00  0.00    +0.172 A 
ATOM      2  C3  UNL     1     -41.095  34.969  -5.338  0.00  0.00    +0.040 A 
ATOM      3  C4  UNL     1     -40.635  34.276  -6.459  0.00  0.00    +0.005 A 
ATOM      4  C5  UNL     1     -41.540  33.623  -7.305  0.00  0.00    +0.018 A 
ATOM      5  C21 UNL     1     -42.907  33.625  -6.986  0.00  0.00    +0.041 A 
ATOM      6  C22 UNL     1     -43.382  34.329  -5.863  0.00  0.00    +0.172 A 
ENDROOT
BRANCH   4   7
ATOM      7  C6  UNL     1     -41.086  32.915  -8.517  0.00  0.00    +0.079 C 
ATOM      8  N1  UNL     1     -40.731  33.634  -9.542  0.00  0.00    -0.172 NA
ATOM      9  N2  UNL     1     -40.086  33.101 -10.684  0.00  0.00    -0.222 N 
ATOM     10  C14 UNL     1     -40.044  31.798 -10.874  0.00  0.00    +0.253 C 
ATOM     11  O2  UNL     1     -39.388  31.247 -11.977  0.00  0.00    -0.271 OA
ATOM     12  C15 UNL     1     -40.740  30.874  -9.904  0.00  0.00    +0.091 C 
ATOM     13  C16 UNL     1     -42.205  30.672 -10.338  0.00  0.00    +0.035 C 
ATOM     14  C17 UNL     1     -43.068  30.073  -9.261  0.00  0.00    -0.030 C 
ATOM     15  C18 UNL     1     -42.743  30.120  -7.962  0.00  0.00    -0.030 C 
ATOM     16  C19 UNL     1     -41.384  30.550  -7.481  0.00  0.00    +0.032 C 
ATOM     17  C20 UNL     1     -40.647  31.462  -8.485  0.00  0.00    +0.056 C 
BRANCH   9  18
ATOM     18  C7  UNL     1     -39.412  34.071 -11.572  0.00  0.00    +0.108 C 
ATOM     19  C8  UNL     1     -37.893  34.126 -11.297  0.00  0.00    +0.024 C 
ATOM     20  C9  UNL     1     -37.128  35.062 -12.250  0.00  0.00    +0.002 C 
ATOM     21  C10 UNL     1     -37.338  36.545 -11.899  0.00  0.00    +0.000 C 
ATOM     22  C11 UNL     1     -38.551  37.204 -12.585  0.00  0.00    +0.000 C 
ATOM     23  C12 UNL     1     -39.803  36.321 -12.747  0.00  0.00    +0.002 C 
ATOM     24  C13 UNL     1     -40.121  35.446 -11.520  0.00  0.00    +0.024 C 
ENDBRANCH   9  18
ENDBRANCH   4   7
BRANCH   1  26
ATOM     25  C1  UNL     1     -42.823  35.293  -2.574  0.00  0.00    +0.253 C 
ATOM     26  O1  UNL     1     -42.972  35.710  -3.929  0.00  0.00    -0.468 OA
ENDBRANCH   1  26
BRANCH   6  27
ATOM     27  O3  UNL     1     -44.750  34.395  -5.547  0.00  0.00    -0.472 OA
BRANCH  27  28
ATOM     28  C23 UNL     1     -45.391  33.620  -4.535  0.00  0.00    +0.206 C 
BRANCH  28  29
ATOM     29  C24 UNL     1     -44.678  32.279  -4.371  0.00  0.00    +0.051 C 
BRANCH  29  30
ATOM     30  C25 UNL     1     -45.638  31.203  -3.840  0.00  0.00    +0.051 C 
BRANCH  30  31
ATOM     31  C26 UNL     1     -45.847  30.087  -4.870  0.00  0.00    +0.206 C 
BRANCH  31  32
ATOM     32  O4  UNL     1     -46.980  30.368  -5.694  0.00  0.00    -0.475 OA
BRANCH  32  33
ATOM     33  C27 UNL     1     -47.053  31.393  -6.655  0.00  0.00    +0.139 A 
ATOM     34  C28 UNL     1     -46.168  31.482  -7.749  0.00  0.00    +0.037 A 
ATOM     35  C29 UNL     1     -46.268  32.543  -8.654  0.00  0.00    +0.006 A 
ATOM     36  C30 UNL     1     -47.262  33.522  -8.496  0.00  0.00    +0.040 A 
ATOM     37  C32 UNL     1     -48.152  33.422  -7.413  0.00  0.00    +0.006 A 
ATOM     38  C33 UNL     1     -48.046  32.367  -6.504  0.00  0.00    +0.037 A 
BRANCH  36  39
ATOM     39  C31 UNL     1     -47.371  34.641  -9.456  0.00  0.00    +0.208 A 
ATOM     40  N3  UNL     1     -46.916  34.621 -10.727  0.00  0.00    -0.106 NA
ATOM     41  N4  UNL     1     -47.201  35.810 -11.229  0.00  0.00    -0.021 NA
ATOM     42  N5  UNL     1     -47.813  36.542 -10.316  0.00  0.00    -0.021 NA
ATOM     43  N6  UNL     1     -47.934  35.843  -9.200  0.00  0.00    -0.106 NA
ENDBRANCH  36  39
ENDBRANCH  32  33
ENDBRANCH  31  32
ENDBRANCH  30  31
ENDBRANCH  29  30
ENDBRANCH  28  29
ENDBRANCH  27  28
ENDBRANCH   6  27
TORSDOF 11
ENDMDL
MODEL 2
REMARK VINA RESULT:      -6.3      3.332      9.499
REMARK  Name = ./data/4wxx_site_bc02/pdb/l1c2.pdb
REMARK  11 active torsions:
REMARK  status: ('A' for Active; 'I' for Inactive)
REMARK    1  A    between atoms: O1_2  and  C2_3
REMARK    2  A    between atoms: C5_6  and  C6_7
REMARK    3  A    between atoms: N2_9  and  C7_10
REMARK    4  A    between atoms: C22_26  and  O3_27
REMARK    5  A    between atoms: O3_27  and  C23_28
REMARK    6  A    between atoms: C23_28  and  C24_29
REMARK    7  A    between atoms: C24_29  and  C25_30
REMARK    8  A    between atoms: C25_30  and  C26_31
REMARK    9  A    between atoms: C26_31  and  O4_32
REMARK   10  A    between atoms: O4_32  and  C27_33
REMARK   11  A    between atoms: C30_36  and  C31_37
REMARK                            x       y       z     vdW  Elec       q    Type
REMARK                         _______ _______ _______ _____ _____    ______ ____
ROOT
ATOM      1  C2  UNL     1     -41.466  35.687  -5.001  0.00  0.00    +0.172 A 
ATOM      2  C3  UNL     1     -42.536  35.888  -4.107  0.00  0.00    +0.040 A 
ATOM      3  C4  UNL     1     -43.583  34.966  -4.037  0.00  0.00    +0.005 A 
ATOM      4  C5  UNL     1     -43.569  33.821  -4.844  0.00  0.00    +0.018 A 
ATOM      5  C21 UNL     1     -42.524  33.637  -5.762  0.00  0.00    +0.041 A 
ATOM      6  C22 UNL     1     -41.459  34.556  -5.833  0.00  0.00    +0.172 A 
ENDROOT
BRANCH   4   7
ATOM      7  C6  UNL     1     -44.642  32.812  -4.765  0.00  0.00    +0.079 C 
ATOM      8  N1  UNL     1     -45.607  32.884  -5.636  0.00  0.00    -0.172 NA
ATOM      9  N2  UNL     1     -46.581  31.872  -5.807  0.00  0.00    -0.222 N 
ATOM     10  C14 UNL     1     -46.709  30.916  -4.909  0.00  0.00    +0.253 C 
ATOM     11  O2  UNL     1     -47.643  29.890  -5.070  0.00  0.00    -0.271 OA
ATOM     12  C15 UNL     1     -45.857  30.937  -3.663  0.00  0.00    +0.091 C 
ATOM     13  C16 UNL     1     -46.558  31.763  -2.567  0.00  0.00    +0.035 C 
ATOM     14  C17 UNL     1     -45.645  32.143  -1.433  0.00  0.00    -0.030 C 
ATOM     15  C18 UNL     1     -44.310  32.160  -1.551  0.00  0.00    -0.030 C 
ATOM     16  C19 UNL     1     -43.594  31.573  -2.735  0.00  0.00    +0.032 C 
ATOM     17  C20 UNL     1     -44.470  31.510  -4.003  0.00  0.00    +0.056 C 
BRANCH   9  18
ATOM     18  C7  UNL     1     -47.359  31.911  -7.063  0.00  0.00    +0.108 C 
ATOM     19  C8  UNL     1     -46.537  32.525  -8.217  0.00  0.00    +0.024 C 
ATOM     20  C9  UNL     1     -47.271  32.517  -9.570  0.00  0.00    +0.002 C 
ATOM     21  C10 UNL     1     -48.359  33.603  -9.645  0.00  0.00    +0.000 C 
ATOM     22  C11 UNL     1     -49.747  33.161  -9.142  0.00  0.00    +0.000 C 
ATOM     23  C12 UNL     1     -49.759  32.217  -7.924  0.00  0.00    +0.002 C 
ATOM     24  C13 UNL     1     -48.736  32.581  -6.833  0.00  0.00    +0.024 C 
ENDBRANCH   9  18
ENDBRANCH   4   7
BRANCH   1  26
ATOM     25  C1  UNL     1     -39.509  36.885  -4.001  0.00  0.00    +0.253 C 
ATOM     26  O1  UNL     1     -40.386  36.580  -5.083  0.00  0.00    -0.468 OA
ENDBRANCH   1  26
BRANCH   6  27
ATOM     27  O3  UNL     1     -40.371  34.371  -6.704  0.00  0.00    -0.472 OA
BRANCH  27  28
ATOM     28  C23 UNL     1     -39.651  33.150  -6.861  0.00  0.00    +0.206 C 
BRANCH  28  29
ATOM     29  C24 UNL     1     -40.039  32.477  -8.177  0.00  0.00    +0.051 C 
BRANCH  29  30
ATOM     30  C25 UNL     1     -40.590  33.502  -9.180  0.00  0.00    +0.051 C 
BRANCH  30  31
ATOM     31  C26 UNL     1     -39.881  33.392 -10.535  0.00  0.00    +0.206 C 
BRANCH  31  32
ATOM     32  O4  UNL     1     -39.047  34.530 -10.760  0.00  0.00    -0.475 OA
BRANCH  32  33
ATOM     33  C27 UNL     1     -37.645  34.546 -10.644  0.00  0.00    +0.139 A 
ATOM     34  C28 UNL     1     -36.844  35.584 -11.162  0.00  0.00    +0.037 A 
ATOM     35  C29 UNL     1     -35.452  35.529 -11.045  0.00  0.00    +0.006 A 
ATOM     36  C30 UNL     1     -34.835  34.448 -10.395  0.00  0.00    +0.040 A 
ATOM     37  C32 UNL     1     -35.636  33.423  -9.866  0.00  0.00    +0.006 A 
ATOM     38  C33 UNL     1     -37.027  33.473  -9.991  0.00  0.00    +0.037 A 
BRANCH  36  39
ATOM     39  C31 UNL     1     -33.362  34.392 -10.266  0.00  0.00    +0.208 A 
ATOM     40  N3  UNL     1     -32.690  33.667  -9.347  0.00  0.00    -0.106 NA
ATOM     41  N4  UNL     1     -31.409  33.906  -9.569  0.00  0.00    -0.021 NA
ATOM     42  N5  UNL     1     -31.283  34.739 -10.585  0.00  0.00    -0.021 NA
ATOM     43  N6  UNL     1     -32.481  35.062 -11.041  0.00  0.00    -0.106 NA
ENDBRANCH  36  39
ENDBRANCH  32  33
ENDBRANCH  31  32
ENDBRANCH  30  31
ENDBRANCH  29  30
ENDBRANCH  28  29
ENDBRANCH  27  28
ENDBRANCH   6  27
TORSDOF 11
ENDMDL
