MODEL 1
REMARK VINA RESULT:      -6.3      0.000      0.000
REMARK  Name = ./data/4wxx_site_bc02/pdb/l1c1.pdb
REMARK  11 active torsions:
REMARK  status: ('A' for Active; 'I' for Inactive)
REMARK    1  A    between atoms: O1_2  and  C2_3
REMARK    2  A    between atoms: C5_6  and  C6_7
REMARK    3  A    between atoms: N2_9  and  C7_10
REMARK    4  A    between atoms: C22_26  and  O3_27
REMARK    5  A    between atoms: O3_27  and  C23_28
REMARK    6  A    between atoms: C23_28  and  C24_29
REMARK    7  A    between atoms: C24_29  and  C25_30
REMARK    8  A    between atoms: C25_30  and  C26_31
REMARK    9  A    between atoms: C26_31  and  O4_32
REMARK   10  A    between atoms: O4_32  and  C27_33
REMARK   11  A    between atoms: C30_36  and  C31_37
REMARK                            x       y       z     vdW  Elec       q    Type
REMARK                         _______ _______ _______ _____ _____    ______ ____
ROOT
ATOM      1  C2  UNL     1     -90.869  58.895  -9.093  0.00  0.00    +0.172 A 
ATOM      2  C3  UNL     1     -89.728  59.492  -8.529  0.00  0.00    +0.040 A 
ATOM      3  C4  UNL     1     -89.629  60.880  -8.429  0.00  0.00    +0.005 A 
ATOM      4  C5  UNL     1     -90.673  61.711  -8.876  0.00  0.00    +0.018 A 
ATOM      5  C21 UNL     1     -91.821  61.105  -9.425  0.00  0.00    +0.041 A 
ATOM      6  C22 UNL     1     -91.916  59.705  -9.551  0.00  0.00    +0.172 A 
ENDROOT
BRANCH   4   7
ATOM      7  C6  UNL     1     -90.583  63.202  -8.800  0.00  0.00    +0.079 C 
ATOM      8  N1  UNL     1     -89.574  63.787  -9.369  0.00  0.00    -0.172 NA
ATOM      9  N2  UNL     1     -89.319  65.171  -9.347  0.00  0.00    -0.222 N 
ATOM     10  C14 UNL     1     -90.197  66.019  -8.865  0.00  0.00    +0.253 C 
ATOM     11  O2  UNL     1     -89.958  67.393  -8.961  0.00  0.00    -0.271 OA
ATOM     12  C15 UNL     1     -91.509  65.547  -8.260  0.00  0.00    +0.091 C 
ATOM     13  C16 UNL     1     -91.869  66.420  -7.013  0.00  0.00    +0.035 C 
ATOM     14  C17 UNL     1     -92.678  65.688  -5.975  0.00  0.00    -0.030 C 
ATOM     15  C18 UNL     1     -92.375  64.423  -5.668  0.00  0.00    -0.030 C 
ATOM     16  C19 UNL     1     -91.322  63.711  -6.464  0.00  0.00    +0.032 C 
ATOM     17  C20 UNL     1     -91.547  64.010  -7.960  0.00  0.00    +0.056 C 
BRANCH   9  18
ATOM     18  C7  UNL     1     -88.042  65.602  -9.959  0.00  0.00    +0.108 C 
ATOM     19  C8  UNL     1     -86.983  64.481  -9.857  0.00  0.00    +0.024 C 
ATOM     20  C9  UNL     1     -85.542  64.982 -10.021  0.00  0.00    +0.002 C 
ATOM     21  C10 UNL     1     -85.282  65.678 -11.365  0.00  0.00    +0.000 C 
ATOM     22  C11 UNL     1     -85.844  67.110 -11.399  0.00  0.00    +0.000 C 
ATOM     23  C12 UNL     1     -87.313  67.219 -11.853  0.00  0.00    +0.002 C 
ATOM     24  C13 UNL     1     -88.252  66.078 -11.417  0.00  0.00    +0.024 C 
ENDBRANCH   9  18
ENDBRANCH   4   7
BRANCH   1  26
ATOM     25  C1  UNL     1     -90.705  56.765 -10.397  0.00  0.00    +0.253 C 
ATOM     26  O1  UNL     1     -90.999  57.501  -9.215  0.00  0.00    -0.468 OA
ENDBRANCH   1  26
BRANCH   6  27
ATOM     27  O3  UNL     1     -93.032  59.083 -10.133  0.00  0.00    -0.472 OA
BRANCH  27  28
ATOM     28  C23 UNL     1     -94.016  59.751 -10.920  0.00  0.00    +0.206 C 
BRANCH  28  29
ATOM     29  C24 UNL     1     -93.595  59.763 -12.390  0.00  0.00    +0.051 C 
BRANCH  29  30
ATOM     30  C25 UNL     1     -93.231  61.181 -12.854  0.00  0.00    +0.051 C 
BRANCH  30  31
ATOM     31  C26 UNL     1     -91.834  61.232 -13.470  0.00  0.00    +0.206 C 
BRANCH  31  32
ATOM     32  O4  UNL     1     -91.080  60.084 -13.086  0.00  0.00    -0.475 OA
BRANCH  32  33
ATOM     33  C27 UNL     1     -89.747  60.128 -12.648  0.00  0.00    +0.139 A 
ATOM     34  C28 UNL     1     -88.898  59.007 -12.705  0.00  0.00    +0.037 A 
ATOM     35  C29 UNL     1     -87.576  59.099 -12.261  0.00  0.00    +0.006 A 
ATOM     36  C30 UNL     1     -87.070  60.312 -11.757  0.00  0.00    +0.040 A 
ATOM     37  C32 UNL     1     -87.926  61.428 -11.702  0.00  0.00    +0.006 A 
ATOM     38  C33 UNL     1     -89.251  61.331 -12.139  0.00  0.00    +0.037 A 
BRANCH  36  39
ATOM     39  C31 UNL     1     -85.658  60.411 -11.300  0.00  0.00    +0.208 A 
ATOM     40  N3  UNL     1     -84.774  59.389 -11.272  0.00  0.00    -0.106 NA
ATOM     41  N4  UNL     1     -83.644  59.904 -10.816  0.00  0.00    -0.021 NA
ATOM     42  N5  UNL     1     -83.812  61.191 -10.568  0.00  0.00    -0.021 NA
ATOM     43  N6  UNL     1     -85.055  61.538 -10.859  0.00  0.00    -0.106 NA
ENDBRANCH  36  39
ENDBRANCH  32  33
ENDBRANCH  31  32
ENDBRANCH  30  31
ENDBRANCH  29  30
ENDBRANCH  28  29
ENDBRANCH  27  28
ENDBRANCH   6  27
TORSDOF 11
ENDMDL
MODEL 2
REMARK VINA RESULT:      -6.3      1.381      1.911
REMARK  Name = ./data/4wxx_site_bc02/pdb/l1c1.pdb
REMARK  11 active torsions:
REMARK  status: ('A' for Active; 'I' for Inactive)
REMARK    1  A    between atoms: O1_2  and  C2_3
REMARK    2  A    between atoms: C5_6  and  C6_7
REMARK    3  A    between atoms: N2_9  and  C7_10
REMARK    4  A    between atoms: C22_26  and  O3_27
REMARK    5  A    between atoms: O3_27  and  C23_28
REMARK    6  A    between atoms: C23_28  and  C24_29
REMARK    7  A    between atoms: C24_29  and  C25_30
REMARK    8  A    between atoms: C25_30  and  C26_31
REMARK    9  A    between atoms: C26_31  and  O4_32
REMARK   10  A    between atoms: O4_32  and  C27_33
REMARK   11  A    between atoms: C30_36  and  C31_37
REMARK                            x       y       z     vdW  Elec       q    Type
REMARK                         _______ _______ _______ _____ _____    ______ ____
ROOT
ATOM      1  C2  UNL     1     -90.702  59.298  -8.728  0.00  0.00    +0.172 A 
ATOM      2  C3  UNL     1     -89.750  60.080  -8.052  0.00  0.00    +0.040 A 
ATOM      3  C4  UNL     1     -89.928  61.458  -7.919  0.00  0.00    +0.005 A 
ATOM      4  C5  UNL     1     -91.069  62.091  -8.445  0.00  0.00    +0.018 A 
ATOM      5  C21 UNL     1     -92.029  61.298  -9.107  0.00  0.00    +0.041 A 
ATOM      6  C22 UNL     1     -91.843  59.911  -9.265  0.00  0.00    +0.172 A 
ENDROOT
BRANCH   4   7
ATOM      7  C6  UNL     1     -91.274  63.569  -8.334  0.00  0.00    +0.079 C 
ATOM      8  N1  UNL     1     -90.570  64.345  -9.101  0.00  0.00    -0.172 NA
ATOM      9  N2  UNL     1     -90.608  65.752  -9.085  0.00  0.00    -0.222 N 
ATOM     10  C14 UNL     1     -91.504  66.403  -8.380  0.00  0.00    +0.253 C 
ATOM     11  O2  UNL     1     -91.583  67.795  -8.476  0.00  0.00    -0.271 OA
ATOM     12  C15 UNL     1     -92.510  65.673  -7.505  0.00  0.00    +0.091 C 
ATOM     13  C16 UNL     1     -92.738  66.466  -6.175  0.00  0.00    +0.035 C 
ATOM     14  C17 UNL     1     -93.110  65.593  -5.007  0.00  0.00    -0.030 C 
ATOM     15  C18 UNL     1     -92.489  64.424  -4.827  0.00  0.00    -0.030 C 
ATOM     16  C19 UNL     1     -91.530  63.939  -5.873  0.00  0.00    +0.032 C 
ATOM     17  C20 UNL     1     -92.158  64.167  -7.263  0.00  0.00    +0.056 C 
BRANCH   9  18
ATOM     18  C7  UNL     1     -89.629  66.434  -9.961  0.00  0.00    +0.108 C 
ATOM     19  C8  UNL     1     -88.304  66.684  -9.205  0.00  0.00    +0.024 C 
ATOM     20  C9  UNL     1     -87.430  67.772  -9.843  0.00  0.00    +0.002 C 
ATOM     21  C10 UNL     1     -87.029  67.467 -11.295  0.00  0.00    +0.000 C 
ATOM     22  C11 UNL     1     -88.177  67.728 -12.285  0.00  0.00    +0.000 C 
ATOM     23  C12 UNL     1     -89.127  66.535 -12.505  0.00  0.00    +0.002 C 
ATOM     24  C13 UNL     1     -89.412  65.648 -11.278  0.00  0.00    +0.024 C 
ENDBRANCH   9  18
ENDBRANCH   4   7
BRANCH   1  26
ATOM     25  C1  UNL     1     -90.909  56.944  -7.903  0.00  0.00    +0.253 C 
ATOM     26  O1  UNL     1     -90.552  57.910  -8.886  0.00  0.00    -0.468 OA
ENDBRANCH   1  26
BRANCH   6  27
ATOM     27  O3  UNL     1     -92.764  59.109  -9.957  0.00  0.00    -0.472 OA
BRANCH  27  28
ATOM     28  C23 UNL     1     -93.556  59.549 -11.058  0.00  0.00    +0.206 C 
BRANCH  28  29
ATOM     29  C24 UNL     1     -93.280  58.680 -12.286  0.00  0.00    +0.051 C 
BRANCH  29  30
ATOM     30  C25 UNL     1     -92.774  59.525 -13.465  0.00  0.00    +0.051 C 
BRANCH  30  31
ATOM     31  C26 UNL     1     -91.335  59.170 -13.836  0.00  0.00    +0.206 C 
BRANCH  31  32
ATOM     32  O4  UNL     1     -90.563  58.934 -12.661  0.00  0.00    -0.475 OA
BRANCH  32  33
ATOM     33  C27 UNL     1     -89.578  59.810 -12.177  0.00  0.00    +0.139 A 
ATOM     34  C28 UNL     1     -89.806  61.192 -12.028  0.00  0.00    +0.037 A 
ATOM     35  C29 UNL     1     -88.797  62.024 -11.537  0.00  0.00    +0.006 A 
ATOM     36  C30 UNL     1     -87.542  61.498 -11.178  0.00  0.00    +0.040 A 
ATOM     37  C32 UNL     1     -87.321  60.117 -11.332  0.00  0.00    +0.006 A 
ATOM     38  C33 UNL     1     -88.330  59.286 -11.830  0.00  0.00    +0.037 A 
BRANCH  36  39
ATOM     39  C31 UNL     1     -86.475  62.385 -10.642  0.00  0.00    +0.208 A 
ATOM     40  N3  UNL     1     -86.678  63.594 -10.072  0.00  0.00    -0.106 NA
ATOM     41  N4  UNL     1     -85.480  64.034  -9.726  0.00  0.00    -0.021 NA
ATOM     42  N5  UNL     1     -84.566  63.143 -10.065  0.00  0.00    -0.021 NA
ATOM     43  N6  UNL     1     -85.152  62.104 -10.637  0.00  0.00    -0.106 NA
ENDBRANCH  36  39
ENDBRANCH  32  33
ENDBRANCH  31  32
ENDBRANCH  30  31
ENDBRANCH  29  30
ENDBRANCH  28  29
ENDBRANCH  27  28
ENDBRANCH   6  27
TORSDOF 11
ENDMDL
MODEL 3
REMARK VINA RESULT:      -6.1      2.892      7.825
REMARK  Name = ./data/4wxx_site_bc02/pdb/l1c1.pdb
REMARK  11 active torsions:
REMARK  status: ('A' for Active; 'I' for Inactive)
REMARK    1  A    between atoms: O1_2  and  C2_3
REMARK    2  A    between atoms: C5_6  and  C6_7
REMARK    3  A    between atoms: N2_9  and  C7_10
REMARK    4  A    between atoms: C22_26  and  O3_27
REMARK    5  A    between atoms: O3_27  and  C23_28
REMARK    6  A    between atoms: C23_28  and  C24_29
REMARK    7  A    between atoms: C24_29  and  C25_30
REMARK    8  A    between atoms: C25_30  and  C26_31
REMARK    9  A    between atoms: C26_31  and  O4_32
REMARK   10  A    between atoms: O4_32  and  C27_33
REMARK   11  A    between atoms: C30_36  and  C31_37
REMARK                            x       y       z     vdW  Elec       q    Type
REMARK                         _______ _______ _______ _____ _____    ______ ____
ROOT
ATOM      1  C2  UNL     1     -92.232  66.461  -8.858  0.00  0.00    +0.172 A 
ATOM      2  C3  UNL     1     -90.974  66.336  -8.243  0.00  0.00    +0.040 A 
ATOM      3  C4  UNL     1     -90.096  65.321  -8.624  0.00  0.00    +0.005 A 
ATOM      4  C5  UNL     1     -90.443  64.411  -9.639  0.00  0.00    +0.018 A 
ATOM      5  C21 UNL     1     -91.699  64.552 -10.264  0.00  0.00    +0.041 A 
ATOM      6  C22 UNL     1     -92.600  65.560  -9.867  0.00  0.00    +0.172 A 
ENDROOT
BRANCH   4   7
ATOM      7  C6  UNL     1     -89.528  63.301 -10.052  0.00  0.00    +0.079 C 
ATOM      8  N1  UNL     1     -89.889  62.081  -9.797  0.00  0.00    -0.172 NA
ATOM      9  N2  UNL     1     -89.124  60.933 -10.075  0.00  0.00    -0.222 N 
ATOM     10  C14 UNL     1     -88.019  61.004 -10.780  0.00  0.00    +0.253 C 
ATOM     11  O2  UNL     1     -87.345  59.830 -11.131  0.00  0.00    -0.271 OA
ATOM     12  C15 UNL     1     -87.483  62.333 -11.286  0.00  0.00    +0.091 C 
ATOM     13  C16 UNL     1     -85.921  62.352 -11.189  0.00  0.00    +0.035 C 
ATOM     14  C17 UNL     1     -85.346  63.729 -10.985  0.00  0.00    -0.030 C 
ATOM     15  C18 UNL     1     -85.941  64.579 -10.144  0.00  0.00    -0.030 C 
ATOM     16  C19 UNL     1     -87.251  64.196  -9.524  0.00  0.00    +0.032 C 
ATOM     17  C20 UNL     1     -88.152  63.578 -10.614  0.00  0.00    +0.056 C 
BRANCH   9  18
ATOM     18  C7  UNL     1     -89.681  59.652  -9.584  0.00  0.00    +0.108 C 
ATOM     19  C8  UNL     1     -89.523  59.541  -8.051  0.00  0.00    +0.024 C 
ATOM     20  C9  UNL     1     -89.625  58.102  -7.527  0.00  0.00    +0.002 C 
ATOM     21  C10 UNL     1     -90.962  57.420  -7.858  0.00  0.00    +0.000 C 
ATOM     22  C11 UNL     1     -91.031  56.952  -9.322  0.00  0.00    +0.000 C 
ATOM     23  C12 UNL     1     -91.551  58.009 -10.316  0.00  0.00    +0.002 C 
ATOM     24  C13 UNL     1     -91.150  59.469 -10.037  0.00  0.00    +0.024 C 
ENDBRANCH   9  18
ENDBRANCH   4   7
BRANCH   1  26
ATOM     25  C1  UNL     1     -93.079  68.814  -8.949  0.00  0.00    +0.253 C 
ATOM     26  O1  UNL     1     -93.144  67.467  -8.496  0.00  0.00    -0.468 OA
ENDBRANCH   1  26
BRANCH   6  27
ATOM     27  O3  UNL     1     -93.872  65.693 -10.445  0.00  0.00    -0.472 OA
BRANCH  27  28
ATOM     28  C23 UNL     1     -94.980  64.837 -10.174  0.00  0.00    +0.206 C 
BRANCH  28  29
ATOM     29  C24 UNL     1     -95.216  63.894 -11.355  0.00  0.00    +0.051 C 
BRANCH  29  30
ATOM     30  C25 UNL     1     -94.817  62.452 -11.006  0.00  0.00    +0.051 C 
BRANCH  30  31
ATOM     31  C26 UNL     1     -95.653  61.899  -9.853  0.00  0.00    +0.206 C 
BRANCH  31  32
ATOM     32  O4  UNL     1     -94.806  61.404  -8.818  0.00  0.00    -0.475 OA
BRANCH  32  33
ATOM     33  C27 UNL     1     -94.217  62.210  -7.831  0.00  0.00    +0.139 A 
ATOM     34  C28 UNL     1     -92.822  62.354  -7.708  0.00  0.00    +0.037 A 
ATOM     35  C29 UNL     1     -92.282  63.171  -6.712  0.00  0.00    +0.006 A 
ATOM     36  C30 UNL     1     -93.119  63.868  -5.821  0.00  0.00    +0.040 A 
ATOM     37  C32 UNL     1     -94.513  63.718  -5.949  0.00  0.00    +0.006 A 
ATOM     38  C33 UNL     1     -95.052  62.893  -6.942  0.00  0.00    +0.037 A 
BRANCH  36  39
ATOM     39  C31 UNL     1     -92.541  64.749  -4.771  0.00  0.00    +0.208 A 
ATOM     40  N3  UNL     1     -92.678  66.093  -4.718  0.00  0.00    -0.106 NA
ATOM     41  N4  UNL     1     -92.029  66.478  -3.632  0.00  0.00    -0.021 NA
ATOM     42  N5  UNL     1     -91.507  65.424  -3.031  0.00  0.00    -0.021 NA
ATOM     43  N6  UNL     1     -91.808  64.332  -3.715  0.00  0.00    -0.106 NA
ENDBRANCH  36  39
ENDBRANCH  32  33
ENDBRANCH  31  32
ENDBRANCH  30  31
ENDBRANCH  29  30
ENDBRANCH  28  29
ENDBRANCH  27  28
ENDBRANCH   6  27
TORSDOF 11
ENDMDL
MODEL 4
REMARK VINA RESULT:      -6.1      4.057      8.686
REMARK  Name = ./data/4wxx_site_bc02/pdb/l1c1.pdb
REMARK  11 active torsions:
REMARK  status: ('A' for Active; 'I' for Inactive)
REMARK    1  A    between atoms: O1_2  and  C2_3
REMARK    2  A    between atoms: C5_6  and  C6_7
REMARK    3  A    between atoms: N2_9  and  C7_10
REMARK    4  A    between atoms: C22_26  and  O3_27
REMARK    5  A    between atoms: O3_27  and  C23_28
REMARK    6  A    between atoms: C23_28  and  C24_29
REMARK    7  A    between atoms: C24_29  and  C25_30
REMARK    8  A    between atoms: C25_30  and  C26_31
REMARK    9  A    between atoms: C26_31  and  O4_32
REMARK   10  A    between atoms: O4_32  and  C27_33
REMARK   11  A    between atoms: C30_36  and  C31_37
REMARK                            x       y       z     vdW  Elec       q    Type
REMARK                         _______ _______ _______ _____ _____    ______ ____
ROOT
ATOM      1  C2  UNL     1     -86.514  62.121 -10.480  0.00  0.00    +0.172 A 
ATOM      2  C3  UNL     1     -87.818  61.770 -10.088  0.00  0.00    +0.040 A 
ATOM      3  C4  UNL     1     -88.726  62.751  -9.689  0.00  0.00    +0.005 A 
ATOM      4  C5  UNL     1     -88.363  64.111  -9.684  0.00  0.00    +0.018 A 
ATOM      5  C21 UNL     1     -87.060  64.457 -10.094  0.00  0.00    +0.041 A 
ATOM      6  C22 UNL     1     -86.130  63.469 -10.475  0.00  0.00    +0.172 A 
ENDROOT
BRANCH   4   7
ATOM      7  C6  UNL     1     -89.311  65.180  -9.241  0.00  0.00    +0.079 C 
ATOM      8  N1  UNL     1     -90.227  64.868  -8.376  0.00  0.00    -0.172 NA
ATOM      9  N2  UNL     1     -91.221  65.742  -7.896  0.00  0.00    -0.222 N 
ATOM     10  C14 UNL     1     -91.199  67.023  -8.180  0.00  0.00    +0.253 C 
ATOM     11  O2  UNL     1     -92.138  67.879  -7.595  0.00  0.00    -0.271 OA
ATOM     12  C15 UNL     1     -90.130  67.619  -9.081  0.00  0.00    +0.091 C 
ATOM     13  C16 UNL     1     -90.756  68.721  -9.998  0.00  0.00    +0.035 C 
ATOM     14  C17 UNL     1     -90.056  68.876 -11.321  0.00  0.00    -0.030 C 
ATOM     15  C18 UNL     1     -89.656  67.792 -11.992  0.00  0.00    -0.030 C 
ATOM     16  C19 UNL     1     -89.789  66.445 -11.347  0.00  0.00    +0.032 C 
ATOM     17  C20 UNL     1     -89.315  66.549  -9.882  0.00  0.00    +0.056 C 
BRANCH   9  18
ATOM     18  C7  UNL     1     -92.238  65.136  -7.007  0.00  0.00    +0.108 C 
ATOM     19  C8  UNL     1     -93.421  64.579  -7.831  0.00  0.00    +0.024 C 
ATOM     20  C9  UNL     1     -94.699  64.373  -7.007  0.00  0.00    +0.002 C 
ATOM     21  C10 UNL     1     -94.521  63.404  -5.827  0.00  0.00    +0.000 C 
ATOM     22  C11 UNL     1     -93.793  64.058  -4.640  0.00  0.00    +0.000 C 
ATOM     23  C12 UNL     1     -92.256  63.963  -4.692  0.00  0.00    +0.002 C 
ATOM     24  C13 UNL     1     -91.609  64.061  -6.086  0.00  0.00    +0.024 C 
ENDBRANCH   9  18
ENDBRANCH   4   7
BRANCH   1  26
ATOM     25  C1  UNL     1     -85.750  60.263 -11.973  0.00  0.00    +0.253 C 
ATOM     26  O1  UNL     1     -85.572  61.159 -10.882  0.00  0.00    -0.468 OA
ENDBRANCH   1  26
BRANCH   6  27
ATOM     27  O3  UNL     1     -84.815  63.786 -10.847  0.00  0.00    -0.472 OA
BRANCH  27  28
ATOM     28  C23 UNL     1     -84.446  64.405 -12.078  0.00  0.00    +0.206 C 
BRANCH  28  29
ATOM     29  C24 UNL     1     -84.470  65.927 -11.928  0.00  0.00    +0.051 C 
BRANCH  29  30
ATOM     30  C25 UNL     1     -85.599  66.551 -12.762  0.00  0.00    +0.051 C 
BRANCH  30  31
ATOM     31  C26 UNL     1     -85.892  67.987 -12.330  0.00  0.00    +0.206 C 
BRANCH  31  32
ATOM     32  O4  UNL     1     -86.096  68.049 -10.920  0.00  0.00    -0.475 OA
BRANCH  32  33
ATOM     33  C27 UNL     1     -86.588  69.177 -10.245  0.00  0.00    +0.139 A 
ATOM     34  C28 UNL     1     -86.960  69.141  -8.888  0.00  0.00    +0.037 A 
ATOM     35  C29 UNL     1     -87.440  70.290  -8.256  0.00  0.00    +0.006 A 
ATOM     36  C30 UNL     1     -87.554  71.503  -8.961  0.00  0.00    +0.040 A 
ATOM     37  C32 UNL     1     -87.182  71.532 -10.317  0.00  0.00    +0.006 A 
ATOM     38  C33 UNL     1     -86.709  70.378 -10.950  0.00  0.00    +0.037 A 
BRANCH  36  39
ATOM     39  C31 UNL     1     -88.051  72.729  -8.281  0.00  0.00    +0.208 A 
ATOM     40  N3  UNL     1     -88.874  73.649  -8.834  0.00  0.00    -0.106 NA
ATOM     41  N4  UNL     1     -89.078  74.559  -7.896  0.00  0.00    -0.021 NA
ATOM     42  N5  UNL     1     -88.412  74.227  -6.805  0.00  0.00    -0.021 NA
ATOM     43  N6  UNL     1     -87.763  73.093  -7.010  0.00  0.00    -0.106 NA
ENDBRANCH  36  39
ENDBRANCH  32  33
ENDBRANCH  31  32
ENDBRANCH  30  31
ENDBRANCH  29  30
ENDBRANCH  28  29
ENDBRANCH  27  28
ENDBRANCH   6  27
TORSDOF 11
ENDMDL
MODEL 5
REMARK VINA RESULT:      -6.0      2.849      5.357
REMARK  Name = ./data/4wxx_site_bc02/pdb/l1c1.pdb
REMARK  11 active torsions:
REMARK  status: ('A' for Active; 'I' for Inactive)
REMARK    1  A    between atoms: O1_2  and  C2_3
REMARK    2  A    between atoms: C5_6  and  C6_7
REMARK    3  A    between atoms: N2_9  and  C7_10
REMARK    4  A    between atoms: C22_26  and  O3_27
REMARK    5  A    between atoms: O3_27  and  C23_28
REMARK    6  A    between atoms: C23_28  and  C24_29
REMARK    7  A    between atoms: C24_29  and  C25_30
REMARK    8  A    between atoms: C25_30  and  C26_31
REMARK    9  A    between atoms: C26_31  and  O4_32
REMARK   10  A    between atoms: O4_32  and  C27_33
REMARK   11  A    between atoms: C30_36  and  C31_37
REMARK                            x       y       z     vdW  Elec       q    Type
REMARK                         _______ _______ _______ _____ _____    ______ ____
ROOT
ATOM      1  C2  UNL     1     -93.230  64.928  -9.289  0.00  0.00    +0.172 A 
ATOM      2  C3  UNL     1     -92.404  64.529 -10.354  0.00  0.00    +0.040 A 
ATOM      3  C4  UNL     1     -91.200  65.188 -10.604  0.00  0.00    +0.005 A 
ATOM      4  C5  UNL     1     -90.779  66.255  -9.789  0.00  0.00    +0.018 A 
ATOM      5  C21 UNL     1     -91.604  66.639  -8.712  0.00  0.00    +0.041 A 
ATOM      6  C22 UNL     1     -92.832  65.994  -8.469  0.00  0.00    +0.172 A 
ENDROOT
BRANCH   4   7
ATOM      7  C6  UNL     1     -89.503  66.992 -10.048  0.00  0.00    +0.079 C 
ATOM      8  N1  UNL     1     -88.498  66.328 -10.531  0.00  0.00    -0.172 NA
ATOM      9  N2  UNL     1     -87.220  66.860 -10.783  0.00  0.00    -0.222 N 
ATOM     10  C14 UNL     1     -86.987  68.149 -10.693  0.00  0.00    +0.253 C 
ATOM     11  O2  UNL     1     -85.736  68.654 -11.060  0.00  0.00    -0.271 OA
ATOM     12  C15 UNL     1     -88.070  69.124 -10.262  0.00  0.00    +0.091 C 
ATOM     13  C16 UNL     1     -87.456  70.236  -9.348  0.00  0.00    +0.035 C 
ATOM     14  C17 UNL     1     -88.428  70.799  -8.346  0.00  0.00    -0.030 C 
ATOM     15  C18 UNL     1     -89.263  69.980  -7.698  0.00  0.00    -0.030 C 
ATOM     16  C19 UNL     1     -89.311  68.532  -8.085  0.00  0.00    +0.032 C 
ATOM     17  C20 UNL     1     -89.321  68.432  -9.624  0.00  0.00    +0.056 C 
BRANCH   9  18
ATOM     18  C7  UNL     1     -86.191  65.889 -11.219  0.00  0.00    +0.108 C 
ATOM     19  C8  UNL     1     -86.291  64.583 -10.398  0.00  0.00    +0.024 C 
ATOM     20  C9  UNL     1     -85.014  63.734 -10.439  0.00  0.00    +0.002 C 
ATOM     21  C10 UNL     1     -84.607  63.303 -11.856  0.00  0.00    +0.000 C 
ATOM     22  C11 UNL     1     -83.940  64.444 -12.644  0.00  0.00    +0.000 C 
ATOM     23  C12 UNL     1     -84.916  65.354 -13.415  0.00  0.00    +0.002 C 
ATOM     24  C13 UNL     1     -86.275  65.629 -12.744  0.00  0.00    +0.024 C 
ENDBRANCH   9  18
ENDBRANCH   4   7
BRANCH   1  26
ATOM     25  C1  UNL     1     -94.572  62.986  -8.458  0.00  0.00    +0.253 C 
ATOM     26  O1  UNL     1     -94.451  64.292  -9.012  0.00  0.00    -0.468 OA
ENDBRANCH   1  26
BRANCH   6  27
ATOM     27  O3  UNL     1     -93.689  66.387  -7.429  0.00  0.00    -0.472 OA
BRANCH  27  28
ATOM     28  C23 UNL     1     -93.359  66.335  -6.043  0.00  0.00    +0.206 C 
BRANCH  28  29
ATOM     29  C24 UNL     1     -93.727  64.968  -5.465  0.00  0.00    +0.051 C 
BRANCH  29  30
ATOM     30  C25 UNL     1     -92.543  64.344  -4.711  0.00  0.00    +0.051 C 
BRANCH  30  31
ATOM     31  C26 UNL     1     -91.363  64.069  -5.643  0.00  0.00    +0.206 C 
BRANCH  31  32
ATOM     32  O4  UNL     1     -91.736  63.130  -6.650  0.00  0.00    -0.475 OA
BRANCH  32  33
ATOM     33  C27 UNL     1     -90.850  62.611  -7.607  0.00  0.00    +0.139 A 
ATOM     34  C28 UNL     1     -91.177  61.506  -8.416  0.00  0.00    +0.037 A 
ATOM     35  C29 UNL     1     -90.265  61.026  -9.359  0.00  0.00    +0.006 A 
ATOM     36  C30 UNL     1     -89.010  61.643  -9.523  0.00  0.00    +0.040 A 
ATOM     37  C32 UNL     1     -88.690  62.746  -8.711  0.00  0.00    +0.006 A 
ATOM     38  C33 UNL     1     -89.601  63.219  -7.761  0.00  0.00    +0.037 A 
BRANCH  36  39
ATOM     39  C31 UNL     1     -88.047  61.140 -10.539  0.00  0.00    +0.208 A 
ATOM     40  N3  UNL     1     -88.066  61.453 -11.854  0.00  0.00    -0.106 NA
ATOM     41  N4  UNL     1     -87.041  60.811 -12.391  0.00  0.00    -0.021 NA
ATOM     42  N5  UNL     1     -86.409  60.125 -11.456  0.00  0.00    -0.021 NA
ATOM     43  N6  UNL     1     -87.010  60.309 -10.291  0.00  0.00    -0.106 NA
ENDBRANCH  36  39
ENDBRANCH  32  33
ENDBRANCH  31  32
ENDBRANCH  30  31
ENDBRANCH  29  30
ENDBRANCH  28  29
ENDBRANCH  27  28
ENDBRANCH   6  27
TORSDOF 11
ENDMDL
MODEL 6
REMARK VINA RESULT:      -5.9      3.312      7.937
REMARK  Name = ./data/4wxx_site_bc02/pdb/l1c1.pdb
REMARK  11 active torsions:
REMARK  status: ('A' for Active; 'I' for Inactive)
REMARK    1  A    between atoms: O1_2  and  C2_3
REMARK    2  A    between atoms: C5_6  and  C6_7
REMARK    3  A    between atoms: N2_9  and  C7_10
REMARK    4  A    between atoms: C22_26  and  O3_27
REMARK    5  A    between atoms: O3_27  and  C23_28
REMARK    6  A    between atoms: C23_28  and  C24_29
REMARK    7  A    between atoms: C24_29  and  C25_30
REMARK    8  A    between atoms: C25_30  and  C26_31
REMARK    9  A    between atoms: C26_31  and  O4_32
REMARK   10  A    between atoms: O4_32  and  C27_33
REMARK   11  A    between atoms: C30_36  and  C31_37
REMARK                            x       y       z     vdW  Elec       q    Type
REMARK                         _______ _______ _______ _____ _____    ______ ____
ROOT
ATOM      1  C2  UNL     1     -85.332  61.313 -11.305  0.00  0.00    +0.172 A 
ATOM      2  C3  UNL     1     -86.113  60.251 -11.794  0.00  0.00    +0.040 A 
ATOM      3  C4  UNL     1     -87.487  60.209 -11.549  0.00  0.00    +0.005 A 
ATOM      4  C5  UNL     1     -88.121  61.232 -10.821  0.00  0.00    +0.018 A 
ATOM      5  C21 UNL     1     -87.335  62.303 -10.348  0.00  0.00    +0.041 A 
ATOM      6  C22 UNL     1     -85.944  62.339 -10.571  0.00  0.00    +0.172 A 
ENDROOT
BRANCH   4   7
ATOM      7  C6  UNL     1     -89.587  61.200 -10.527  0.00  0.00    +0.079 C 
ATOM      8  N1  UNL     1     -90.092  62.163  -9.819  0.00  0.00    -0.172 NA
ATOM      9  N2  UNL     1     -91.438  62.254  -9.415  0.00  0.00    -0.222 N 
ATOM     10  C14 UNL     1     -92.346  61.425  -9.873  0.00  0.00    +0.253 C 
ATOM     11  O2  UNL     1     -93.690  61.615  -9.538  0.00  0.00    -0.271 OA
ATOM     12  C15 UNL     1     -91.982  60.293 -10.820  0.00  0.00    +0.091 C 
ATOM     13  C16 UNL     1     -92.816  59.015 -10.473  0.00  0.00    +0.035 C 
ATOM     14  C17 UNL     1     -92.116  57.726 -10.811  0.00  0.00    -0.030 C 
ATOM     15  C18 UNL     1     -90.811  57.593 -10.558  0.00  0.00    -0.030 C 
ATOM     16  C19 UNL     1     -90.037  58.781 -10.069  0.00  0.00    +0.032 C 
ATOM     17  C20 UNL     1     -90.444  60.013 -10.905  0.00  0.00    +0.056 C 
BRANCH   9  18
ATOM     18  C7  UNL     1     -91.765  63.378  -8.507  0.00  0.00    +0.108 C 
ATOM     19  C8  UNL     1     -91.814  62.895  -7.039  0.00  0.00    +0.024 C 
ATOM     20  C9  UNL     1     -92.588  63.839  -6.110  0.00  0.00    +0.002 C 
ATOM     21  C10 UNL     1     -92.012  65.263  -6.060  0.00  0.00    +0.000 C 
ATOM     22  C11 UNL     1     -92.387  66.088  -7.304  0.00  0.00    +0.000 C 
ATOM     23  C12 UNL     1     -91.415  65.949  -8.491  0.00  0.00    +0.002 C 
ATOM     24  C13 UNL     1     -90.783  64.560  -8.702  0.00  0.00    +0.024 C 
ENDBRANCH   9  18
ENDBRANCH   4   7
BRANCH   1  26
ATOM     25  C1  UNL     1     -83.252  60.645 -12.525  0.00  0.00    +0.253 C 
ATOM     26  O1  UNL     1     -83.947  61.385 -11.527  0.00  0.00    -0.468 OA
ENDBRANCH   1  26
BRANCH   6  27
ATOM     27  O3  UNL     1     -85.135  63.372 -10.073  0.00  0.00    -0.472 OA
BRANCH  27  28
ATOM     28  C23 UNL     1     -85.380  64.763 -10.275  0.00  0.00    +0.206 C 
BRANCH  28  29
ATOM     29  C24 UNL     1     -84.859  65.194 -11.647  0.00  0.00    +0.051 C 
BRANCH  29  30
ATOM     30  C25 UNL     1     -86.012  65.411 -12.638  0.00  0.00    +0.051 C 
BRANCH  30  31
ATOM     31  C26 UNL     1     -87.353  65.559 -11.920  0.00  0.00    +0.206 C 
BRANCH  31  32
ATOM     32  O4  UNL     1     -87.809  66.908 -11.997  0.00  0.00    -0.475 OA
BRANCH  32  33
ATOM     33  C27 UNL     1     -87.641  67.855 -10.975  0.00  0.00    +0.139 A 
ATOM     34  C28 UNL     1     -88.048  67.613  -9.649  0.00  0.00    +0.037 A 
ATOM     35  C29 UNL     1     -87.856  68.584  -8.663  0.00  0.00    +0.006 A 
ATOM     36  C30 UNL     1     -87.248  69.815  -8.975  0.00  0.00    +0.040 A 
ATOM     37  C32 UNL     1     -86.845  70.050 -10.303  0.00  0.00    +0.006 A 
ATOM     38  C33 UNL     1     -87.046  69.080 -11.290  0.00  0.00    +0.037 A 
BRANCH  36  39
ATOM     39  C31 UNL     1     -87.031  70.841  -7.920  0.00  0.00    +0.208 A 
ATOM     40  N3  UNL     1     -85.828  71.210  -7.426  0.00  0.00    -0.106 NA
ATOM     41  N4  UNL     1     -86.081  72.148  -6.528  0.00  0.00    -0.021 NA
ATOM     42  N5  UNL     1     -87.383  72.356  -6.460  0.00  0.00    -0.021 NA
ATOM     43  N6  UNL     1     -88.004  71.559  -7.314  0.00  0.00    -0.106 NA
ENDBRANCH  36  39
ENDBRANCH  32  33
ENDBRANCH  31  32
ENDBRANCH  30  31
ENDBRANCH  29  30
ENDBRANCH  28  29
ENDBRANCH  27  28
ENDBRANCH   6  27
TORSDOF 11
ENDMDL
MODEL 7
REMARK VINA RESULT:      -5.6      4.704      9.483
REMARK  Name = ./data/4wxx_site_bc02/pdb/l1c1.pdb
REMARK  11 active torsions:
REMARK  status: ('A' for Active; 'I' for Inactive)
REMARK    1  A    between atoms: O1_2  and  C2_3
REMARK    2  A    between atoms: C5_6  and  C6_7
REMARK    3  A    between atoms: N2_9  and  C7_10
REMARK    4  A    between atoms: C22_26  and  O3_27
REMARK    5  A    between atoms: O3_27  and  C23_28
REMARK    6  A    between atoms: C23_28  and  C24_29
REMARK    7  A    between atoms: C24_29  and  C25_30
REMARK    8  A    between atoms: C25_30  and  C26_31
REMARK    9  A    between atoms: C26_31  and  O4_32
REMARK   10  A    between atoms: O4_32  and  C27_33
REMARK   11  A    between atoms: C30_36  and  C31_37
REMARK                            x       y       z     vdW  Elec       q    Type
REMARK                         _______ _______ _______ _____ _____    ______ ____
ROOT
ATOM      1  C2  UNL     1     -88.117  68.923 -10.698  0.00  0.00    +0.172 A 
ATOM      2  C3  UNL     1     -87.316  67.829 -11.067  0.00  0.00    +0.040 A 
ATOM      3  C4  UNL     1     -87.613  66.545 -10.606  0.00  0.00    +0.005 A 
ATOM      4  C5  UNL     1     -88.725  66.317  -9.775  0.00  0.00    +0.018 A 
ATOM      5  C21 UNL     1     -89.534  67.416  -9.423  0.00  0.00    +0.041 A 
ATOM      6  C22 UNL     1     -89.226  68.718  -9.865  0.00  0.00    +0.172 A 
ENDROOT
BRANCH   4   7
ATOM      7  C6  UNL     1     -89.053  64.954  -9.251  0.00  0.00    +0.079 C 
ATOM      8  N1  UNL     1     -88.454  63.933  -9.780  0.00  0.00    -0.172 NA
ATOM      9  N2  UNL     1     -88.685  62.588  -9.435  0.00  0.00    -0.222 N 
ATOM     10  C14 UNL     1     -89.436  62.266  -8.408  0.00  0.00    +0.253 C 
ATOM     11  O2  UNL     1     -89.553  60.925  -8.028  0.00  0.00    -0.271 OA
ATOM     12  C15 UNL     1     -90.135  63.325  -7.572  0.00  0.00    +0.091 C 
ATOM     13  C16 UNL     1     -91.558  62.826  -7.154  0.00  0.00    +0.035 C 
ATOM     14  C17 UNL     1     -92.556  63.936  -6.963  0.00  0.00    -0.030 C 
ATOM     15  C18 UNL     1     -92.584  64.959  -7.822  0.00  0.00    -0.030 C 
ATOM     16  C19 UNL     1     -91.526  65.052  -8.881  0.00  0.00    +0.032 C 
ATOM     17  C20 UNL     1     -90.158  64.741  -8.240  0.00  0.00    +0.056 C 
BRANCH   9  18
ATOM     18  C7  UNL     1     -87.977  61.579 -10.256  0.00  0.00    +0.108 C 
ATOM     19  C8  UNL     1     -88.971  60.819 -11.163  0.00  0.00    +0.024 C 
ATOM     20  C9  UNL     1     -88.430  59.479 -11.677  0.00  0.00    +0.002 C 
ATOM     21  C10 UNL     1     -87.137  59.611 -12.497  0.00  0.00    +0.000 C 
ATOM     22  C11 UNL     1     -85.902  59.833 -11.607  0.00  0.00    +0.000 C 
ATOM     23  C12 UNL     1     -85.603  61.306 -11.269  0.00  0.00    +0.002 C 
ATOM     24  C13 UNL     1     -86.823  62.224 -11.063  0.00  0.00    +0.024 C 
ENDBRANCH   9  18
ENDBRANCH   4   7
BRANCH   1  26
ATOM     25  C1  UNL     1     -86.723  70.593 -11.935  0.00  0.00    +0.253 C 
ATOM     26  O1  UNL     1     -87.845  70.229 -11.138  0.00  0.00    -0.468 OA
ENDBRANCH   1  26
BRANCH   6  27
ATOM     27  O3  UNL     1     -89.992  69.833  -9.493  0.00  0.00    -0.472 OA
BRANCH  27  28
ATOM     28  C23 UNL     1     -91.396  69.961  -9.706  0.00  0.00    +0.206 C 
BRANCH  28  29
ATOM     29  C24 UNL     1     -91.916  71.233  -9.033  0.00  0.00    +0.051 C 
BRANCH  29  30
ATOM     30  C25 UNL     1     -90.790  72.257  -8.830  0.00  0.00    +0.051 C 
BRANCH  30  31
ATOM     31  C26 UNL     1     -90.588  72.588  -7.352  0.00  0.00    +0.206 C 
BRANCH  31  32
ATOM     32  O4  UNL     1     -89.498  73.494  -7.192  0.00  0.00    -0.475 OA
BRANCH  32  33
ATOM     33  C27 UNL     1     -88.207  73.270  -7.696  0.00  0.00    +0.139 A 
ATOM     34  C28 UNL     1     -87.612  74.119  -8.648  0.00  0.00    +0.037 A 
ATOM     35  C29 UNL     1     -86.322  73.859  -9.118  0.00  0.00    +0.006 A 
ATOM     36  C30 UNL     1     -85.595  72.751  -8.644  0.00  0.00    +0.040 A 
ATOM     37  C32 UNL     1     -86.197  71.905  -7.694  0.00  0.00    +0.006 A 
ATOM     38  C33 UNL     1     -87.492  72.163  -7.231  0.00  0.00    +0.037 A 
BRANCH  36  39
ATOM     39  C31 UNL     1     -84.216  72.485  -9.136  0.00  0.00    +0.208 A 
ATOM     40  N3  UNL     1     -83.904  71.977 -10.349  0.00  0.00    -0.106 NA
ATOM     41  N4  UNL     1     -82.584  71.914 -10.384  0.00  0.00    -0.021 NA
ATOM     42  N5  UNL     1     -82.089  72.362  -9.244  0.00  0.00    -0.021 NA
ATOM     43  N6  UNL     1     -83.079  72.726  -8.445  0.00  0.00    -0.106 NA
ENDBRANCH  36  39
ENDBRANCH  32  33
ENDBRANCH  31  32
ENDBRANCH  30  31
ENDBRANCH  29  30
ENDBRANCH  28  29
ENDBRANCH  27  28
ENDBRANCH   6  27
TORSDOF 11
ENDMDL
MODEL 8
REMARK VINA RESULT:      -5.1      3.925      8.186
REMARK  Name = ./data/4wxx_site_bc02/pdb/l1c1.pdb
REMARK  11 active torsions:
REMARK  status: ('A' for Active; 'I' for Inactive)
REMARK    1  A    between atoms: O1_2  and  C2_3
REMARK    2  A    between atoms: C5_6  and  C6_7
REMARK    3  A    between atoms: N2_9  and  C7_10
REMARK    4  A    between atoms: C22_26  and  O3_27
REMARK    5  A    between atoms: O3_27  and  C23_28
REMARK    6  A    between atoms: C23_28  and  C24_29
REMARK    7  A    between atoms: C24_29  and  C25_30
REMARK    8  A    between atoms: C25_30  and  C26_31
REMARK    9  A    between atoms: C26_31  and  O4_32
REMARK   10  A    between atoms: O4_32  and  C27_33
REMARK   11  A    between atoms: C30_36  and  C31_37
REMARK                            x       y       z     vdW  Elec       q    Type
REMARK                         _______ _______ _______ _____ _____    ______ ____
ROOT
ATOM      1  C2  UNL     1     -87.263  70.489  -7.996  0.00  0.00    +0.172 A 
ATOM      2  C3  UNL     1     -88.281  71.069  -7.220  0.00  0.00    +0.040 A 
ATOM      3  C4  UNL     1     -89.600  70.625  -7.332  0.00  0.00    +0.005 A 
ATOM      4  C5  UNL     1     -89.936  69.580  -8.212  0.00  0.00    +0.018 A 
ATOM      5  C21 UNL     1     -88.907  68.991  -8.975  0.00  0.00    +0.041 A 
ATOM      6  C22 UNL     1     -87.579  69.451  -8.884  0.00  0.00    +0.172 A 
ENDROOT
BRANCH   4   7
ATOM      7  C6  UNL     1     -91.344  69.099  -8.367  0.00  0.00    +0.079 C 
ATOM      8  N1  UNL     1     -91.703  68.034  -7.718  0.00  0.00    -0.172 NA
ATOM      9  N2  UNL     1     -92.971  67.428  -7.794  0.00  0.00    -0.222 N 
ATOM     10  C14 UNL     1     -93.967  68.004  -8.425  0.00  0.00    +0.253 C 
ATOM     11  O2  UNL     1     -95.240  67.427  -8.384  0.00  0.00    -0.271 OA
ATOM     12  C15 UNL     1     -93.789  69.327  -9.150  0.00  0.00    +0.091 C 
ATOM     13  C16 UNL     1     -94.612  69.324 -10.481  0.00  0.00    +0.035 C 
ATOM     14  C17 UNL     1     -94.019  70.189 -11.561  0.00  0.00    -0.030 C 
ATOM     15  C18 UNL     1     -92.696  70.196 -11.754  0.00  0.00    -0.030 C 
ATOM     16  C19 UNL     1     -91.815  69.448 -10.800  0.00  0.00    +0.032 C 
ATOM     17  C20 UNL     1     -92.292  69.733  -9.360  0.00  0.00    +0.056 C 
BRANCH   9  18
ATOM     18  C7  UNL     1     -93.120  66.149  -7.063  0.00  0.00    +0.108 C 
ATOM     19  C8  UNL     1     -92.708  64.958  -7.958  0.00  0.00    +0.024 C 
ATOM     20  C9  UNL     1     -93.261  63.610  -7.479  0.00  0.00    +0.002 C 
ATOM     21  C10 UNL     1     -92.818  63.233  -6.057  0.00  0.00    +0.000 C 
ATOM     22  C11 UNL     1     -93.600  64.002  -4.978  0.00  0.00    +0.000 C 
ATOM     23  C12 UNL     1     -92.998  65.367  -4.591  0.00  0.00    +0.002 C 
ATOM     24  C13 UNL     1     -92.338  66.173  -5.726  0.00  0.00    +0.024 C 
ENDBRANCH   9  18
ENDBRANCH   4   7
BRANCH   1  26
ATOM     25  C1  UNL     1     -85.465  71.960  -7.065  0.00  0.00    +0.253 C 
ATOM     26  O1  UNL     1     -85.927  70.915  -7.914  0.00  0.00    -0.468 OA
ENDBRANCH   1  26
BRANCH   6  27
ATOM     27  O3  UNL     1     -86.546  68.909  -9.665  0.00  0.00    -0.472 OA
BRANCH  27  28
ATOM     28  C23 UNL     1     -86.744  68.098 -10.822  0.00  0.00    +0.206 C 
BRANCH  28  29
ATOM     29  C24 UNL     1     -86.344  66.652 -10.526  0.00  0.00    +0.051 C 
BRANCH  29  30
ATOM     30  C25 UNL     1     -87.578  65.744 -10.416  0.00  0.00    +0.051 C 
BRANCH  30  31
ATOM     31  C26 UNL     1     -87.186  64.286 -10.180  0.00  0.00    +0.206 C 
BRANCH  31  32
ATOM     32  O4  UNL     1     -87.768  63.806  -8.970  0.00  0.00    -0.475 OA
BRANCH  32  33
ATOM     33  C27 UNL     1     -88.431  62.574  -8.849  0.00  0.00    +0.139 A 
ATOM     34  C28 UNL     1     -89.443  62.353  -7.897  0.00  0.00    +0.037 A 
ATOM     35  C29 UNL     1     -90.079  61.111  -7.817  0.00  0.00    +0.006 A 
ATOM     36  C30 UNL     1     -89.724  60.065  -8.690  0.00  0.00    +0.040 A 
ATOM     37  C32 UNL     1     -88.710  60.294  -9.639  0.00  0.00    +0.006 A 
ATOM     38  C33 UNL     1     -88.069  61.535  -9.711  0.00  0.00    +0.037 A 
BRANCH  36  39
ATOM     39  C31 UNL     1     -90.413  58.750  -8.613  0.00  0.00    +0.208 A 
ATOM     40  N3  UNL     1     -91.329  58.295  -9.497  0.00  0.00    -0.106 NA
ATOM     41  N4  UNL     1     -91.675  57.092  -9.070  0.00  0.00    -0.021 NA
ATOM     42  N5  UNL     1     -91.007  56.804  -7.967  0.00  0.00    -0.021 NA
ATOM     43  N6  UNL     1     -90.212  57.815  -7.656  0.00  0.00    -0.106 NA
ENDBRANCH  36  39
ENDBRANCH  32  33
ENDBRANCH  31  32
ENDBRANCH  30  31
ENDBRANCH  29  30
ENDBRANCH  28  29
ENDBRANCH  27  28
ENDBRANCH   6  27
TORSDOF 11
ENDMDL
MODEL 9
REMARK VINA RESULT:      -4.7      5.033     10.115
REMARK  Name = ./data/4wxx_site_bc02/pdb/l1c1.pdb
REMARK  11 active torsions:
REMARK  status: ('A' for Active; 'I' for Inactive)
REMARK    1  A    between atoms: O1_2  and  C2_3
REMARK    2  A    between atoms: C5_6  and  C6_7
REMARK    3  A    between atoms: N2_9  and  C7_10
REMARK    4  A    between atoms: C22_26  and  O3_27
REMARK    5  A    between atoms: O3_27  and  C23_28
REMARK    6  A    between atoms: C23_28  and  C24_29
REMARK    7  A    between atoms: C24_29  and  C25_30
REMARK    8  A    between atoms: C25_30  and  C26_31
REMARK    9  A    between atoms: C26_31  and  O4_32
REMARK   10  A    between atoms: O4_32  and  C27_33
REMARK   11  A    between atoms: C30_36  and  C31_37
REMARK                            x       y       z     vdW  Elec       q    Type
REMARK                         _______ _______ _______ _____ _____    ______ ____
ROOT
ATOM      1  C2  UNL     1     -86.283  64.368 -11.338  0.00  0.00    +0.172 A 
ATOM      2  C3  UNL     1     -87.345  63.627 -10.790  0.00  0.00    +0.040 A 
ATOM      3  C4  UNL     1     -88.353  64.262 -10.063  0.00  0.00    +0.005 A 
ATOM      4  C5  UNL     1     -88.336  65.657  -9.875  0.00  0.00    +0.018 A 
ATOM      5  C21 UNL     1     -87.277  66.396 -10.441  0.00  0.00    +0.041 A 
ATOM      6  C22 UNL     1     -86.244  65.757 -11.155  0.00  0.00    +0.172 A 
ENDROOT
BRANCH   4   7
ATOM      7  C6  UNL     1     -89.393  66.360  -9.083  0.00  0.00    +0.079 C 
ATOM      8  N1  UNL     1     -90.339  65.646  -8.554  0.00  0.00    -0.172 NA
ATOM      9  N2  UNL     1     -91.429  66.157  -7.824  0.00  0.00    -0.222 N 
ATOM     10  C14 UNL     1     -91.487  67.423  -7.480  0.00  0.00    +0.253 C 
ATOM     11  O2  UNL     1     -92.528  67.871  -6.660  0.00  0.00    -0.271 OA
ATOM     12  C15 UNL     1     -90.408  68.409  -7.894  0.00  0.00    +0.091 C 
ATOM     13  C16 UNL     1     -91.053  69.788  -8.254  0.00  0.00    +0.035 C 
ATOM     14  C17 UNL     1     -90.277  70.569  -9.281  0.00  0.00    -0.030 C 
ATOM     15  C18 UNL     1     -89.749  69.939 -10.334  0.00  0.00    -0.030 C 
ATOM     16  C19 UNL     1     -89.821  68.443 -10.401  0.00  0.00    +0.032 C 
ATOM     17  C20 UNL     1     -89.459  67.869  -9.016  0.00  0.00    +0.056 C 
BRANCH   9  18
ATOM     18  C7  UNL     1     -92.454  65.169  -7.419  0.00  0.00    +0.108 C 
ATOM     19  C8  UNL     1     -92.978  64.392  -8.648  0.00  0.00    +0.024 C 
ATOM     20  C9  UNL     1     -94.333  63.712  -8.412  0.00  0.00    +0.002 C 
ATOM     21  C10 UNL     1     -94.321  62.701  -7.255  0.00  0.00    +0.000 C 
ATOM     22  C11 UNL     1     -94.363  63.389  -5.879  0.00  0.00    +0.000 C 
ATOM     23  C12 UNL     1     -92.984  63.766  -5.302  0.00  0.00    +0.002 C 
ATOM     24  C13 UNL     1     -91.918  64.226  -6.314  0.00  0.00    +0.024 C 
ENDBRANCH   9  18
ENDBRANCH   4   7
BRANCH   1  26
ATOM     25  C1  UNL     1     -84.573  62.572 -11.674  0.00  0.00    +0.253 C 
ATOM     26  O1  UNL     1     -85.248  63.761 -12.069  0.00  0.00    -0.468 OA
ENDBRANCH   1  26
BRANCH   6  27
ATOM     27  O3  UNL     1     -85.158  66.467 -11.690  0.00  0.00    -0.472 OA
BRANCH  27  28
ATOM     28  C23 UNL     1     -85.229  67.319 -12.832  0.00  0.00    +0.206 C 
BRANCH  28  29
ATOM     29  C24 UNL     1     -85.432  68.770 -12.394  0.00  0.00    +0.051 C 
BRANCH  29  30
ATOM     30  C25 UNL     1     -84.373  69.693 -13.015  0.00  0.00    +0.051 C 
BRANCH  30  31
ATOM     31  C26 UNL     1     -84.153  70.948 -12.172  0.00  0.00    +0.206 C 
BRANCH  31  32
ATOM     32  O4  UNL     1     -84.972  70.911 -11.005  0.00  0.00    -0.475 OA
BRANCH  32  33
ATOM     33  C27 UNL     1     -85.791  71.971 -10.585  0.00  0.00    +0.139 A 
ATOM     34  C28 UNL     1     -85.546  72.689  -9.399  0.00  0.00    +0.037 A 
ATOM     35  C29 UNL     1     -86.385  73.741  -9.023  0.00  0.00    +0.006 A 
ATOM     36  C30 UNL     1     -87.484  74.104  -9.825  0.00  0.00    +0.040 A 
ATOM     37  C32 UNL     1     -87.724  73.381 -11.008  0.00  0.00    +0.006 A 
ATOM     38  C33 UNL     1     -86.887  72.323 -11.378  0.00  0.00    +0.037 A 
BRANCH  36  39
ATOM     39  C31 UNL     1     -88.367  75.234  -9.430  0.00  0.00    +0.208 A 
ATOM     40  N3  UNL     1     -88.498  75.721  -8.175  0.00  0.00    -0.106 NA
ATOM     41  N4  UNL     1     -89.361  76.719  -8.265  0.00  0.00    -0.021 NA
ATOM     42  N5  UNL     1     -89.756  76.851  -9.518  0.00  0.00    -0.021 NA
ATOM     43  N6  UNL     1     -89.156  75.943 -10.269  0.00  0.00    -0.106 NA
ENDBRANCH  36  39
ENDBRANCH  32  33
ENDBRANCH  31  32
ENDBRANCH  30  31
ENDBRANCH  29  30
ENDBRANCH  28  29
ENDBRANCH  27  28
ENDBRANCH   6  27
TORSDOF 11
ENDMDL
