REMARK  Name = ./data/4u7t_site2_bc02/pdb/l1c1.pdb
REMARK  11 active torsions:
REMARK  status: ('A' for Active; 'I' for Inactive)
REMARK    1  A    between atoms: O1_2  and  C2_3
REMARK    2  A    between atoms: C5_6  and  C6_7
REMARK    3  A    between atoms: N2_9  and  C7_10
REMARK    4  A    between atoms: C22_26  and  O3_27
REMARK    5  A    between atoms: O3_27  and  C23_28
REMARK    6  A    between atoms: C23_28  and  C24_29
REMARK    7  A    between atoms: C24_29  and  C25_30
REMARK    8  A    between atoms: C25_30  and  C26_31
REMARK    9  A    between atoms: C26_31  and  O4_32
REMARK   10  A    between atoms: O4_32  and  C27_33
REMARK   11  A    between atoms: C30_36  and  C31_37
REMARK                            x       y       z     vdW  Elec       q    Type
REMARK                         _______ _______ _______ _____ _____    ______ ____
ROOT
ATOM      1  C2  UNL     1      -0.308  -3.865  -0.998  0.00  0.00    +0.172 A 
ATOM      2  C3  UNL     1       0.720  -4.484  -1.730  0.00  0.00    +0.040 A 
ATOM      3  C4  UNL     1       1.897  -3.794  -2.024  0.00  0.00    +0.005 A 
ATOM      4  C5  UNL     1       2.086  -2.471  -1.583  0.00  0.00    +0.018 A 
ATOM      5  C21 UNL     1       1.058  -1.862  -0.835  0.00  0.00    +0.041 A 
ATOM      6  C22 UNL     1      -0.142  -2.545  -0.556  0.00  0.00    +0.172 A 
ENDROOT
BRANCH   4   7
ATOM      7  C6  UNL     1       3.329  -1.702  -1.902  0.00  0.00    +0.079 C 
ATOM      8  N1  UNL     1       3.615  -0.668  -1.172  0.00  0.00    -0.172 NA
ATOM      9  N2  UNL     1       4.716   0.186  -1.371  0.00  0.00    -0.222 N 
ATOM     10  C14 UNL     1       5.654  -0.101  -2.243  0.00  0.00    +0.253 C 
ATOM     11  O2  UNL     1       6.788   0.712  -2.334  0.00  0.00    -0.271 OA
ATOM     12  C15 UNL     1       5.573  -1.341  -3.118  0.00  0.00    +0.091 C 
ATOM     13  C16 UNL     1       6.104  -1.019  -4.554  0.00  0.00    +0.035 C 
ATOM     14  C17 UNL     1       5.472  -1.856  -5.634  0.00  0.00    -0.030 C 
ATOM     15  C18 UNL     1       4.160  -2.107  -5.597  0.00  0.00    -0.030 C 
ATOM     16  C19 UNL     1       3.366  -1.666  -4.404  0.00  0.00    +0.032 C 
ATOM     17  C20 UNL     1       4.159  -2.013  -3.127  0.00  0.00    +0.056 C 
BRANCH   9  18
ATOM     18  C7  UNL     1       4.777   1.376  -0.492  0.00  0.00    +0.108 C 
ATOM     19  C8  UNL     1       5.945   1.252   0.513  0.00  0.00    +0.024 C 
ATOM     20  C9  UNL     1       5.803   2.170   1.734  0.00  0.00    +0.002 C 
ATOM     21  C10 UNL     1       5.719   3.662   1.376  0.00  0.00    +0.000 C 
ATOM     22  C11 UNL     1       4.330   4.058   0.846  0.00  0.00    +0.000 C 
ATOM     23  C12 UNL     1       4.144   3.886  -0.674  0.00  0.00    +0.002 C 
ATOM     24  C13 UNL     1       4.854   2.682  -1.321  0.00  0.00    +0.024 C 
ENDBRANCH   9  18
ENDBRANCH   4   7
BRANCH   1  26
ATOM     25  C1  UNL     1      -1.807  -5.868  -1.062  0.00  0.00    +0.253 C 
ATOM     26  O1  UNL     1      -1.508  -4.527  -0.690  0.00  0.00    -0.468 OA
ENDBRANCH   1  26
BRANCH   6  27
ATOM     27  O3  UNL     1      -1.196  -1.944   0.150  0.00  0.00    -0.472 OA
BRANCH  27  28
ATOM     28  C23 UNL     1      -1.165  -0.622   0.684  0.00  0.00    +0.206 C 
BRANCH  28  29
ATOM     29  C24 UNL     1      -2.534  -0.255   1.259  0.00  0.00    +0.051 C 
BRANCH  29  30
ATOM     30  C25 UNL     1      -3.594  -0.153   0.152  0.00  0.00    +0.051 C 
BRANCH  30  31
ATOM     31  C26 UNL     1      -4.927   0.362   0.693  0.00  0.00    +0.206 C 
BRANCH  31  32
ATOM     32  O4  UNL     1      -5.516  -0.604   1.561  0.00  0.00    -0.475 OA
BRANCH  32  33
ATOM     33  C27 UNL     1      -6.760  -0.441   2.191  0.00  0.00    +0.139 A 
ATOM     34  C28 UNL     1      -7.513   0.743   2.078  0.00  0.00    +0.037 A 
ATOM     35  C29 UNL     1      -8.749   0.858   2.719  0.00  0.00    +0.006 A 
ATOM     36  C30 UNL     1      -9.265  -0.207   3.481  0.00  0.00    +0.040 A 
ATOM     37  C32 UNL     1      -8.506  -1.387   3.591  0.00  0.00    +0.006 A 
ATOM     38  C33 UNL     1      -7.265  -1.497   2.955  0.00  0.00    +0.037 A 
BRANCH  36  39
ATOM     39  C31 UNL     1     -10.588  -0.087   4.150  0.00  0.00    +0.208 A 
ATOM     40  N3  UNL     1     -11.492   0.892   3.922  0.00  0.00    -0.106 NA
ATOM     41  N4  UNL     1     -12.523   0.619   4.704  0.00  0.00    -0.021 NA
ATOM     42  N5  UNL     1     -12.277  -0.481   5.393  0.00  0.00    -0.021 NA
ATOM     43  N6  UNL     1     -11.081  -0.946   5.071  0.00  0.00    -0.106 NA
ENDBRANCH  36  39
ENDBRANCH  32  33
ENDBRANCH  31  32
ENDBRANCH  30  31
ENDBRANCH  29  30
ENDBRANCH  28  29
ENDBRANCH  27  28
ENDBRANCH   6  27
TORSDOF 11
