MODEL 1
REMARK VINA RESULT:       2.9      0.000      0.000
REMARK  Name = ./data/4wxx_site_bc02/pdb/l1c0.pdb
REMARK  11 active torsions:
REMARK  status: ('A' for Active; 'I' for Inactive)
REMARK    1  A    between atoms: O1_2  and  C2_3
REMARK    2  A    between atoms: C5_6  and  C6_7
REMARK    3  A    between atoms: N2_9  and  C7_10
REMARK    4  A    between atoms: C22_26  and  O3_27
REMARK    5  A    between atoms: O3_27  and  C23_28
REMARK    6  A    between atoms: C23_28  and  C24_29
REMARK    7  A    between atoms: C24_29  and  C25_30
REMARK    8  A    between atoms: C25_30  and  C26_31
REMARK    9  A    between atoms: C26_31  and  O4_32
REMARK   10  A    between atoms: O4_32  and  C27_33
REMARK   11  A    between atoms: C30_36  and  C31_37
REMARK                            x       y       z     vdW  Elec       q    Type
REMARK                         _______ _______ _______ _____ _____    ______ ____
ROOT
ATOM      1  C2  UNL     1     -83.720  51.928   7.828  0.00  0.00    +0.172 A 
ATOM      2  C3  UNL     1     -84.653  52.956   7.618  0.00  0.00    +0.040 A 
ATOM      3  C4  UNL     1     -85.804  53.037   8.403  0.00  0.00    +0.005 A 
ATOM      4  C5  UNL     1     -86.051  52.101   9.423  0.00  0.00    +0.018 A 
ATOM      5  C21 UNL     1     -85.105  51.080   9.639  0.00  0.00    +0.041 A 
ATOM      6  C22 UNL     1     -83.952  50.977   8.832  0.00  0.00    +0.172 A 
ENDROOT
BRANCH   4   7
ATOM      7  C6  UNL     1     -87.293  52.212  10.248  0.00  0.00    +0.079 C 
ATOM      8  N1  UNL     1     -87.715  51.159  10.884  0.00  0.00    -0.172 NA
ATOM      9  N2  UNL     1     -88.869  51.132  11.694  0.00  0.00    -0.222 N 
ATOM     10  C14 UNL     1     -89.451  52.247  12.076  0.00  0.00    +0.253 C 
ATOM     11  O2  UNL     1     -90.533  52.195  12.960  0.00  0.00    -0.271 OA
ATOM     12  C15 UNL     1     -88.894  53.593  11.629  0.00  0.00    +0.091 C 
ATOM     13  C16 UNL     1     -89.976  54.683  11.486  0.00  0.00    +0.035 C 
ATOM     14  C17 UNL     1     -90.964  54.273  10.435  0.00  0.00    -0.030 C 
ATOM     15  C18 UNL     1     -90.532  53.706   9.302  0.00  0.00    -0.030 C 
ATOM     16  C19 UNL     1     -89.058  53.538   9.012  0.00  0.00    +0.032 C 
ATOM     17  C20 UNL     1     -88.136  53.470  10.276  0.00  0.00    +0.056 C 
BRANCH   9  18
ATOM     18  C7  UNL     1     -89.329  49.800  12.142  0.00  0.00    +0.108 C 
ATOM     19  C8  UNL     1     -89.756  48.922  10.935  0.00  0.00    +0.024 C 
ATOM     20  C9  UNL     1     -90.884  47.939  11.290  0.00  0.00    +0.002 C 
ATOM     21  C10 UNL     1     -90.402  46.708  12.063  0.00  0.00    +0.000 C 
ATOM     22  C11 UNL     1     -89.736  47.046  13.402  0.00  0.00    +0.000 C 
ATOM     23  C12 UNL     1     -88.324  47.628  13.218  0.00  0.00    +0.002 C 
ATOM     24  C13 UNL     1     -88.290  49.160  13.103  0.00  0.00    +0.024 C 
ENDBRANCH   9  18
ENDBRANCH   4   7
BRANCH   1  26
ATOM     25  C1  UNL     1     -82.401  52.332   5.742  0.00  0.00    +0.253 C 
ATOM     26  O1  UNL     1     -82.551  51.814   7.060  0.00  0.00    -0.468 OA
ENDBRANCH   1  26
BRANCH   6  27
ATOM     27  O3  UNL     1     -83.008  49.948   8.995  0.00  0.00    -0.472 OA
BRANCH  27  28
ATOM     28  C23 UNL     1     -82.286  49.304   7.946  0.00  0.00    +0.206 C 
BRANCH  28  29
ATOM     29  C24 UNL     1     -80.808  49.156   8.320  0.00  0.00    +0.051 C 
BRANCH  29  30
ATOM     30  C25 UNL     1     -79.896  49.606   7.173  0.00  0.00    +0.051 C 
BRANCH  30  31
ATOM     31  C26 UNL     1     -79.985  48.652   5.982  0.00  0.00    +0.206 C 
BRANCH  31  32
ATOM     32  O4  UNL     1     -79.979  49.406   4.770  0.00  0.00    -0.475 OA
BRANCH  32  33
ATOM     33  C27 UNL     1     -81.114  49.687   3.998  0.00  0.00    +0.139 A 
ATOM     34  C28 UNL     1     -82.275  48.949   4.240  0.00  0.00    +0.037 A 
ATOM     35  C29 UNL     1     -83.425  49.161   3.479  0.00  0.00    +0.006 A 
ATOM     36  C30 UNL     1     -83.443  50.137   2.464  0.00  0.00    +0.040 A 
ATOM     37  C32 UNL     1     -82.279  50.898   2.238  0.00  0.00    +0.006 A 
ATOM     38  C33 UNL     1     -81.124  50.671   2.993  0.00  0.00    +0.037 A 
BRANCH  36  39
ATOM     39  C31 UNL     1     -84.664  50.353   1.645  0.00  0.00    +0.208 A 
ATOM     40  N3  UNL     1     -84.907  51.435   0.874  0.00  0.00    -0.106 NA
ATOM     41  N4  UNL     1     -86.080  51.215   0.306  0.00  0.00    -0.021 NA
ATOM     42  N5  UNL     1     -86.554  50.048   0.706  0.00  0.00    -0.021 NA
ATOM     43  N6  UNL     1     -85.696  49.486   1.537  0.00  0.00    -0.106 NA
ENDBRANCH  36  39
ENDBRANCH  32  33
ENDBRANCH  31  32
ENDBRANCH  30  31
ENDBRANCH  29  30
ENDBRANCH  28  29
ENDBRANCH  27  28
ENDBRANCH   6  27
TORSDOF 11
ENDMDL
MODEL 2
REMARK VINA RESULT:       3.3      1.819      4.372
REMARK  Name = ./data/4wxx_site_bc02/pdb/l1c0.pdb
REMARK  11 active torsions:
REMARK  status: ('A' for Active; 'I' for Inactive)
REMARK    1  A    between atoms: O1_2  and  C2_3
REMARK    2  A    between atoms: C5_6  and  C6_7
REMARK    3  A    between atoms: N2_9  and  C7_10
REMARK    4  A    between atoms: C22_26  and  O3_27
REMARK    5  A    between atoms: O3_27  and  C23_28
REMARK    6  A    between atoms: C23_28  and  C24_29
REMARK    7  A    between atoms: C24_29  and  C25_30
REMARK    8  A    between atoms: C25_30  and  C26_31
REMARK    9  A    between atoms: C26_31  and  O4_32
REMARK   10  A    between atoms: O4_32  and  C27_33
REMARK   11  A    between atoms: C30_36  and  C31_37
REMARK                            x       y       z     vdW  Elec       q    Type
REMARK                         _______ _______ _______ _____ _____    ______ ____
ROOT
ATOM      1  C2  UNL     1     -82.641  50.645  10.112  0.00  0.00    +0.172 A 
ATOM      2  C3  UNL     1     -83.280  51.427  11.088  0.00  0.00    +0.040 A 
ATOM      3  C4  UNL     1     -84.653  51.666  11.015  0.00  0.00    +0.005 A 
ATOM      4  C5  UNL     1     -85.426  51.125   9.973  0.00  0.00    +0.018 A 
ATOM      5  C21 UNL     1     -84.783  50.329   9.005  0.00  0.00    +0.041 A 
ATOM      6  C22 UNL     1     -83.391  50.105   9.058  0.00  0.00    +0.172 A 
ENDROOT
BRANCH   4   7
ATOM      7  C6  UNL     1     -86.896  51.397   9.920  0.00  0.00    +0.079 C 
ATOM      8  N1  UNL     1     -87.299  52.573   9.538  0.00  0.00    -0.172 NA
ATOM      9  N2  UNL     1     -88.653  52.955   9.445  0.00  0.00    -0.222 N 
ATOM     10  C14 UNL     1     -89.611  52.057   9.483  0.00  0.00    +0.253 C 
ATOM     11  O2  UNL     1     -90.939  52.452   9.288  0.00  0.00    -0.271 OA
ATOM     12  C15 UNL     1     -89.270  50.581   9.652  0.00  0.00    +0.091 C 
ATOM     13  C16 UNL     1     -90.362  49.785  10.397  0.00  0.00    +0.035 C 
ATOM     14  C17 UNL     1     -90.523  50.334  11.782  0.00  0.00    -0.030 C 
ATOM     15  C18 UNL     1     -89.441  50.675  12.493  0.00  0.00    -0.030 C 
ATOM     16  C19 UNL     1     -88.043  50.447  11.965  0.00  0.00    +0.032 C 
ATOM     17  C20 UNL     1     -87.922  50.395  10.405  0.00  0.00    +0.056 C 
BRANCH   9  18
ATOM     18  C7  UNL     1     -88.917  54.394   9.226  0.00  0.00    +0.108 C 
ATOM     19  C8  UNL     1     -89.348  54.665   7.760  0.00  0.00    +0.024 C 
ATOM     20  C9  UNL     1     -88.907  56.051   7.262  0.00  0.00    +0.002 C 
ATOM     21  C10 UNL     1     -89.790  57.195   7.773  0.00  0.00    +0.000 C 
ATOM     22  C11 UNL     1     -89.817  57.313   9.302  0.00  0.00    +0.000 C 
ATOM     23  C12 UNL     1     -90.666  56.209   9.955  0.00  0.00    +0.002 C 
ATOM     24  C13 UNL     1     -89.873  54.944  10.319  0.00  0.00    +0.024 C 
ENDBRANCH   9  18
ENDBRANCH   4   7
BRANCH   1  26
ATOM     25  C1  UNL     1     -80.603  49.712  11.221  0.00  0.00    +0.253 C 
ATOM     26  O1  UNL     1     -81.263  50.383  10.152  0.00  0.00    -0.468 OA
ENDBRANCH   1  26
BRANCH   6  27
ATOM     27  O3  UNL     1     -82.712  49.350   8.087  0.00  0.00    -0.472 OA
BRANCH  27  28
ATOM     28  C23 UNL     1     -81.629  49.809   7.279  0.00  0.00    +0.206 C 
BRANCH  28  29
ATOM     29  C24 UNL     1     -80.376  48.964   7.524  0.00  0.00    +0.051 C 
BRANCH  29  30
ATOM     30  C25 UNL     1     -79.522  48.853   6.256  0.00  0.00    +0.051 C 
BRANCH  30  31
ATOM     31  C26 UNL     1     -79.954  49.872   5.202  0.00  0.00    +0.206 C 
BRANCH  31  32
ATOM     32  O4  UNL     1     -80.416  49.184   4.040  0.00  0.00    -0.475 OA
BRANCH  32  33
ATOM     33  C27 UNL     1     -81.579  49.507   3.329  0.00  0.00    +0.139 A 
ATOM     34  C28 UNL     1     -81.849  50.856   3.087  0.00  0.00    +0.037 A 
ATOM     35  C29 UNL     1     -83.010  51.240   2.413  0.00  0.00    +0.006 A 
ATOM     36  C30 UNL     1     -83.921  50.273   1.947  0.00  0.00    +0.040 A 
ATOM     37  C32 UNL     1     -83.634  48.911   2.170  0.00  0.00    +0.006 A 
ATOM     38  C33 UNL     1     -82.477  48.532   2.859  0.00  0.00    +0.037 A 
BRANCH  36  39
ATOM     39  C31 UNL     1     -85.163  50.682   1.242  0.00  0.00    +0.208 A 
ATOM     40  N3  UNL     1     -86.181  49.859   0.908  0.00  0.00    -0.106 NA
ATOM     41  N4  UNL     1     -87.085  50.625   0.323  0.00  0.00    -0.021 NA
ATOM     42  N5  UNL     1     -86.652  51.873   0.288  0.00  0.00    -0.021 NA
ATOM     43  N6  UNL     1     -85.462  51.943   0.854  0.00  0.00    -0.106 NA
ENDBRANCH  36  39
ENDBRANCH  32  33
ENDBRANCH  31  32
ENDBRANCH  30  31
ENDBRANCH  29  30
ENDBRANCH  28  29
ENDBRANCH  27  28
ENDBRANCH   6  27
TORSDOF 11
ENDMDL
