MODEL 1
REMARK VINA RESULT:       6.6      0.000      0.000
REMARK  Name = ./data/4wxx_site_bc02/pdb/l1c1.pdb
REMARK  11 active torsions:
REMARK  status: ('A' for Active; 'I' for Inactive)
REMARK    1  A    between atoms: O1_2  and  C2_3
REMARK    2  A    between atoms: C5_6  and  C6_7
REMARK    3  A    between atoms: N2_9  and  C7_10
REMARK    4  A    between atoms: C22_26  and  O3_27
REMARK    5  A    between atoms: O3_27  and  C23_28
REMARK    6  A    between atoms: C23_28  and  C24_29
REMARK    7  A    between atoms: C24_29  and  C25_30
REMARK    8  A    between atoms: C25_30  and  C26_31
REMARK    9  A    between atoms: C26_31  and  O4_32
REMARK   10  A    between atoms: O4_32  and  C27_33
REMARK   11  A    between atoms: C30_36  and  C31_37
REMARK                            x       y       z     vdW  Elec       q    Type
REMARK                         _______ _______ _______ _____ _____    ______ ____
ROOT
ATOM      1  C2  UNL     1     -82.034  50.470   2.014  0.00  0.00    +0.172 A 
ATOM      2  C3  UNL     1     -80.905  50.725   2.812  0.00  0.00    +0.040 A 
ATOM      3  C4  UNL     1     -80.978  50.612   4.201  0.00  0.00    +0.005 A 
ATOM      4  C5  UNL     1     -82.177  50.228   4.831  0.00  0.00    +0.018 A 
ATOM      5  C21 UNL     1     -83.300  49.959   4.024  0.00  0.00    +0.041 A 
ATOM      6  C22 UNL     1     -83.239  50.094   2.623  0.00  0.00    +0.172 A 
ENDROOT
BRANCH   4   7
ATOM      7  C6  UNL     1     -82.288  50.120   6.319  0.00  0.00    +0.079 C 
ATOM      8  N1  UNL     1     -83.175  50.849   6.923  0.00  0.00    -0.172 NA
ATOM      9  N2  UNL     1     -83.372  50.900   8.316  0.00  0.00    -0.222 N 
ATOM     10  C14 UNL     1     -82.757  50.068   9.123  0.00  0.00    +0.253 C 
ATOM     11  O2  UNL     1     -83.062  50.073  10.488  0.00  0.00    -0.271 OA
ATOM     12  C15 UNL     1     -81.764  49.043   8.602  0.00  0.00    +0.091 C 
ATOM     13  C16 UNL     1     -80.566  48.902   9.598  0.00  0.00    +0.035 C 
ATOM     14  C17 UNL     1     -79.272  48.508   8.937  0.00  0.00    -0.030 C 
ATOM     15  C18 UNL     1     -78.929  49.059   7.769  0.00  0.00    -0.030 C 
ATOM     16  C19 UNL     1     -79.906  49.957   7.071  0.00  0.00    +0.032 C 
ATOM     17  C20 UNL     1     -81.304  49.306   7.129  0.00  0.00    +0.056 C 
BRANCH   9  18
ATOM     18  C7  UNL     1     -84.358  51.896   8.792  0.00  0.00    +0.108 C 
ATOM     19  C8  UNL     1     -84.694  52.909   7.674  0.00  0.00    +0.024 C 
ATOM     20  C9  UNL     1     -85.312  54.213   8.194  0.00  0.00    +0.002 C 
ATOM     21  C10 UNL     1     -86.620  54.006   8.974  0.00  0.00    +0.000 C 
ATOM     22  C11 UNL     1     -86.374  53.488  10.401  0.00  0.00    +0.000 C 
ATOM     23  C12 UNL     1     -86.287  51.955  10.527  0.00  0.00    +0.002 C 
ATOM     24  C13 UNL     1     -85.625  51.205   9.356  0.00  0.00    +0.024 C 
ENDBRANCH   9  18
ENDBRANCH   4   7
BRANCH   1  26
ATOM     25  C1  UNL     1     -82.625  49.669  -0.282  0.00  0.00    +0.253 C 
ATOM     26  O1  UNL     1     -81.998  50.581   0.614  0.00  0.00    -0.468 OA
ENDBRANCH   1  26
BRANCH   6  27
ATOM     27  O3  UNL     1     -84.357  49.872   1.802  0.00  0.00    -0.472 OA
BRANCH  27  28
ATOM     28  C23 UNL     1     -85.104  50.900   1.155  0.00  0.00    +0.206 C 
BRANCH  28  29
ATOM     29  C24 UNL     1     -85.903  50.314  -0.011  0.00  0.00    +0.051 C 
BRANCH  29  30
ATOM     30  C25 UNL     1     -85.657  51.101  -1.306  0.00  0.00    +0.051 C 
BRANCH  30  31
ATOM     31  C26 UNL     1     -86.907  51.151  -2.183  0.00  0.00    +0.206 C 
BRANCH  31  32
ATOM     32  O4  UNL     1     -87.528  52.431  -2.090  0.00  0.00    -0.475 OA
BRANCH  32  33
ATOM     33  C27 UNL     1     -87.362  53.309  -1.007  0.00  0.00    +0.139 A 
ATOM     34  C28 UNL     1     -88.032  53.130   0.218  0.00  0.00    +0.037 A 
ATOM     35  C29 UNL     1     -87.832  54.027   1.271  0.00  0.00    +0.006 A 
ATOM     36  C30 UNL     1     -86.954  55.118   1.128  0.00  0.00    +0.040 A 
ATOM     37  C32 UNL     1     -86.289  55.292  -0.100  0.00  0.00    +0.006 A 
ATOM     38  C33 UNL     1     -86.497  54.397  -1.155  0.00  0.00    +0.037 A 
BRANCH  36  39
ATOM     39  C31 UNL     1     -86.732  56.063   2.255  0.00  0.00    +0.208 A 
ATOM     40  N3  UNL     1     -87.009  55.808   3.553  0.00  0.00    -0.106 NA
ATOM     41  N4  UNL     1     -86.652  56.894   4.217  0.00  0.00    -0.021 NA
ATOM     42  N5  UNL     1     -86.174  57.792   3.374  0.00  0.00    -0.021 NA
ATOM     43  N6  UNL     1     -86.209  57.305   2.144  0.00  0.00    -0.106 NA
ENDBRANCH  36  39
ENDBRANCH  32  33
ENDBRANCH  31  32
ENDBRANCH  30  31
ENDBRANCH  29  30
ENDBRANCH  28  29
ENDBRANCH  27  28
ENDBRANCH   6  27
TORSDOF 11
ENDMDL
MODEL 2
REMARK VINA RESULT:       8.8      1.419      1.980
REMARK  Name = ./data/4wxx_site_bc02/pdb/l1c1.pdb
REMARK  11 active torsions:
REMARK  status: ('A' for Active; 'I' for Inactive)
REMARK    1  A    between atoms: O1_2  and  C2_3
REMARK    2  A    between atoms: C5_6  and  C6_7
REMARK    3  A    between atoms: N2_9  and  C7_10
REMARK    4  A    between atoms: C22_26  and  O3_27
REMARK    5  A    between atoms: O3_27  and  C23_28
REMARK    6  A    between atoms: C23_28  and  C24_29
REMARK    7  A    between atoms: C24_29  and  C25_30
REMARK    8  A    between atoms: C25_30  and  C26_31
REMARK    9  A    between atoms: C26_31  and  O4_32
REMARK   10  A    between atoms: O4_32  and  C27_33
REMARK   11  A    between atoms: C30_36  and  C31_37
REMARK                            x       y       z     vdW  Elec       q    Type
REMARK                         _______ _______ _______ _____ _____    ______ ____
ROOT
ATOM      1  C2  UNL     1     -81.319  50.843   3.079  0.00  0.00    +0.172 A 
ATOM      2  C3  UNL     1     -81.058  51.845   4.031  0.00  0.00    +0.040 A 
ATOM      3  C4  UNL     1     -81.440  51.675   5.362  0.00  0.00    +0.005 A 
ATOM      4  C5  UNL     1     -82.079  50.494   5.784  0.00  0.00    +0.018 A 
ATOM      5  C21 UNL     1     -82.322  49.487   4.828  0.00  0.00    +0.041 A 
ATOM      6  C22 UNL     1     -81.961  49.663   3.478  0.00  0.00    +0.172 A 
ENDROOT
BRANCH   4   7
ATOM      7  C6  UNL     1     -82.516  50.296   7.201  0.00  0.00    +0.079 C 
ATOM      8  N1  UNL     1     -83.481  51.035   7.654  0.00  0.00    -0.172 NA
ATOM      9  N2  UNL     1     -83.975  51.006   8.972  0.00  0.00    -0.222 N 
ATOM     10  C14 UNL     1     -83.588  50.088   9.826  0.00  0.00    +0.253 C 
ATOM     11  O2  UNL     1     -84.183  50.022  11.090  0.00  0.00    -0.271 OA
ATOM     12  C15 UNL     1     -82.550  49.042   9.453  0.00  0.00    +0.091 C 
ATOM     13  C16 UNL     1     -81.606  48.766  10.670  0.00  0.00    +0.035 C 
ATOM     14  C17 UNL     1     -80.218  48.341  10.273  0.00  0.00    -0.030 C 
ATOM     15  C18 UNL     1     -79.604  48.946   9.252  0.00  0.00    -0.030 C 
ATOM     16  C19 UNL     1     -80.365  49.943   8.431  0.00  0.00    +0.032 C 
ATOM     17  C20 UNL     1     -81.769  49.373   8.137  0.00  0.00    +0.056 C 
BRANCH   9  18
ATOM     18  C7  UNL     1     -84.998  52.025   9.301  0.00  0.00    +0.108 C 
ATOM     19  C8  UNL     1     -85.061  53.109   8.200  0.00  0.00    +0.024 C 
ATOM     20  C9  UNL     1     -85.720  54.415   8.663  0.00  0.00    +0.002 C 
ATOM     21  C10 UNL     1     -87.165  54.235   9.153  0.00  0.00    +0.000 C 
ATOM     22  C11 UNL     1     -87.232  53.634  10.568  0.00  0.00    +0.000 C 
ATOM     23  C12 UNL     1     -87.233  52.094  10.617  0.00  0.00    +0.002 C 
ATOM     24  C13 UNL     1     -86.378  51.372   9.559  0.00  0.00    +0.024 C 
ENDBRANCH   9  18
ENDBRANCH   4   7
BRANCH   1  26
ATOM     25  C1  UNL     1     -81.875  50.982   0.643  0.00  0.00    +0.253 C 
ATOM     26  O1  UNL     1     -80.955  50.983   1.729  0.00  0.00    -0.468 OA
ENDBRANCH   1  26
BRANCH   6  27
ATOM     27  O3  UNL     1     -82.231  48.692   2.501  0.00  0.00    -0.472 OA
BRANCH  27  28
ATOM     28  C23 UNL     1     -83.537  48.253   2.132  0.00  0.00    +0.206 C 
BRANCH  28  29
ATOM     29  C24 UNL     1     -84.547  49.386   2.328  0.00  0.00    +0.051 C 
BRANCH  29  30
ATOM     30  C25 UNL     1     -84.639  50.272   1.077  0.00  0.00    +0.051 C 
BRANCH  30  31
ATOM     31  C26 UNL     1     -85.264  49.524  -0.100  0.00  0.00    +0.206 C 
BRANCH  31  32
ATOM     32  O4  UNL     1     -86.263  50.327  -0.724  0.00  0.00    -0.475 OA
BRANCH  32  33
ATOM     33  C27 UNL     1     -86.400  51.710  -0.523  0.00  0.00    +0.139 A 
ATOM     34  C28 UNL     1     -86.576  52.613  -1.588  0.00  0.00    +0.037 A 
ATOM     35  C29 UNL     1     -86.713  53.981  -1.339  0.00  0.00    +0.006 A 
ATOM     36  C30 UNL     1     -86.684  54.478  -0.022  0.00  0.00    +0.040 A 
ATOM     37  C32 UNL     1     -86.506  53.570   1.037  0.00  0.00    +0.006 A 
ATOM     38  C33 UNL     1     -86.361  52.202   0.785  0.00  0.00    +0.037 A 
BRANCH  36  39
ATOM     39  C31 UNL     1     -86.845  55.933   0.240  0.00  0.00    +0.208 A 
ATOM     40  N3  UNL     1     -87.707  56.752  -0.403  0.00  0.00    -0.106 NA
ATOM     41  N4  UNL     1     -87.541  57.947   0.139  0.00  0.00    -0.021 NA
ATOM     42  N5  UNL     1     -86.616  57.882   1.079  0.00  0.00    -0.021 NA
ATOM     43  N6  UNL     1     -86.163  56.642   1.168  0.00  0.00    -0.106 NA
ENDBRANCH  36  39
ENDBRANCH  32  33
ENDBRANCH  31  32
ENDBRANCH  30  31
ENDBRANCH  29  30
ENDBRANCH  28  29
ENDBRANCH  27  28
ENDBRANCH   6  27
TORSDOF 11
ENDMDL
