MODEL 1
REMARK VINA RESULT:      -9.4      0.000      0.000
REMARK  Name = ./data/4wxx_site_bc02/pdb/l1c2.pdb
REMARK  11 active torsions:
REMARK  status: ('A' for Active; 'I' for Inactive)
REMARK    1  A    between atoms: O1_2  and  C2_3
REMARK    2  A    between atoms: C5_6  and  C6_7
REMARK    3  A    between atoms: N2_9  and  C7_10
REMARK    4  A    between atoms: C22_26  and  O3_27
REMARK    5  A    between atoms: O3_27  and  C23_28
REMARK    6  A    between atoms: C23_28  and  C24_29
REMARK    7  A    between atoms: C24_29  and  C25_30
REMARK    8  A    between atoms: C25_30  and  C26_31
REMARK    9  A    between atoms: C26_31  and  O4_32
REMARK   10  A    between atoms: O4_32  and  C27_33
REMARK   11  A    between atoms: C30_36  and  C31_37
REMARK                            x       y       z     vdW  Elec       q    Type
REMARK                         _______ _______ _______ _____ _____    ______ ____
ROOT
ATOM      1  C2  UNL     1     -52.871  62.723   7.264  0.00  0.00    +0.172 A 
ATOM      2  C3  UNL     1     -51.994  62.208   8.238  0.00  0.00    +0.040 A 
ATOM      3  C4  UNL     1     -51.244  61.060   7.979  0.00  0.00    +0.005 A 
ATOM      4  C5  UNL     1     -51.343  60.418   6.738  0.00  0.00    +0.018 A 
ATOM      5  C21 UNL     1     -52.243  60.907   5.779  0.00  0.00    +0.041 A 
ATOM      6  C22 UNL     1     -52.997  62.069   6.027  0.00  0.00    +0.172 A 
ENDROOT
BRANCH   4   7
ATOM      7  C6  UNL     1     -50.535  59.225   6.423  0.00  0.00    +0.079 C 
ATOM      8  N1  UNL     1     -51.144  58.075   6.375  0.00  0.00    -0.172 NA
ATOM      9  N2  UNL     1     -50.542  56.892   5.887  0.00  0.00    -0.222 N 
ATOM     10  C14 UNL     1     -49.239  56.842   5.693  0.00  0.00    +0.253 C 
ATOM     11  O2  UNL     1     -48.625  55.695   5.184  0.00  0.00    -0.271 OA
ATOM     12  C15 UNL     1     -48.380  58.030   6.053  0.00  0.00    +0.091 C 
ATOM     13  C16 UNL     1     -47.947  57.930   7.529  0.00  0.00    +0.035 C 
ATOM     14  C17 UNL     1     -47.402  59.220   8.078  0.00  0.00    -0.030 C 
ATOM     15  C18 UNL     1     -47.664  60.412   7.524  0.00  0.00    -0.030 C 
ATOM     16  C19 UNL     1     -48.315  60.553   6.175  0.00  0.00    +0.032 C 
ATOM     17  C20 UNL     1     -49.163  59.326   5.781  0.00  0.00    +0.056 C 
BRANCH   9  18
ATOM     18  C7  UNL     1     -51.455  55.783   5.539  0.00  0.00    +0.108 C 
ATOM     19  C8  UNL     1     -50.954  54.439   6.113  0.00  0.00    +0.024 C 
ATOM     20  C9  UNL     1     -51.910  53.262   5.849  0.00  0.00    +0.002 C 
ATOM     21  C10 UNL     1     -51.837  52.771   4.393  0.00  0.00    +0.000 C 
ATOM     22  C11 UNL     1     -52.803  53.482   3.424  0.00  0.00    +0.000 C 
ATOM     23  C12 UNL     1     -53.019  54.988   3.663  0.00  0.00    +0.002 C 
ATOM     24  C13 UNL     1     -51.735  55.762   4.016  0.00  0.00    +0.024 C 
ENDBRANCH   9  18
ENDBRANCH   4   7
BRANCH   1  26
ATOM     25  C1  UNL     1     -53.952  64.407   8.767  0.00  0.00    +0.253 C 
ATOM     26  O1  UNL     1     -53.625  63.888   7.480  0.00  0.00    -0.468 OA
ENDBRANCH   1  26
BRANCH   6  27
ATOM     27  O3  UNL     1     -53.867  62.614   5.066  0.00  0.00    -0.472 OA
BRANCH  27  28
ATOM     28  C23 UNL     1     -53.761  62.406   3.659  0.00  0.00    +0.206 C 
BRANCH  28  29
ATOM     29  C24 UNL     1     -53.956  63.728   2.917  0.00  0.00    +0.051 C 
BRANCH  29  30
ATOM     30  C25 UNL     1     -53.861  63.529   1.397  0.00  0.00    +0.051 C 
BRANCH  30  31
ATOM     31  C26 UNL     1     -52.580  64.154   0.833  0.00  0.00    +0.206 C 
BRANCH  31  32
ATOM     32  O4  UNL     1     -52.214  65.315   1.582  0.00  0.00    -0.475 OA
BRANCH  32  33
ATOM     33  C27 UNL     1     -51.040  65.454   2.344  0.00  0.00    +0.139 A 
ATOM     34  C28 UNL     1     -50.693  64.570   3.387  0.00  0.00    +0.037 A 
ATOM     35  C29 UNL     1     -49.528  64.779   4.131  0.00  0.00    +0.006 A 
ATOM     36  C30 UNL     1     -48.680  65.859   3.840  0.00  0.00    +0.040 A 
ATOM     37  C32 UNL     1     -49.021  66.729   2.791  0.00  0.00    +0.006 A 
ATOM     38  C33 UNL     1     -50.189  66.527   2.052  0.00  0.00    +0.037 A 
BRANCH  36  39
ATOM     39  C31 UNL     1     -47.445  66.077   4.624  0.00  0.00    +0.208 A 
ATOM     40  N3  UNL     1     -46.486  66.978   4.328  0.00  0.00    -0.106 NA
ATOM     41  N4  UNL     1     -45.563  66.841   5.264  0.00  0.00    -0.021 NA
ATOM     42  N5  UNL     1     -45.929  65.898   6.113  0.00  0.00    -0.021 NA
ATOM     43  N6  UNL     1     -47.097  65.401   5.742  0.00  0.00    -0.106 NA
ENDBRANCH  36  39
ENDBRANCH  32  33
ENDBRANCH  31  32
ENDBRANCH  30  31
ENDBRANCH  29  30
ENDBRANCH  28  29
ENDBRANCH  27  28
ENDBRANCH   6  27
TORSDOF 11
ENDMDL
MODEL 2
REMARK VINA RESULT:      -9.0      2.794      6.409
REMARK  Name = ./data/4wxx_site_bc02/pdb/l1c2.pdb
REMARK  11 active torsions:
REMARK  status: ('A' for Active; 'I' for Inactive)
REMARK    1  A    between atoms: O1_2  and  C2_3
REMARK    2  A    between atoms: C5_6  and  C6_7
REMARK    3  A    between atoms: N2_9  and  C7_10
REMARK    4  A    between atoms: C22_26  and  O3_27
REMARK    5  A    between atoms: O3_27  and  C23_28
REMARK    6  A    between atoms: C23_28  and  C24_29
REMARK    7  A    between atoms: C24_29  and  C25_30
REMARK    8  A    between atoms: C25_30  and  C26_31
REMARK    9  A    between atoms: C26_31  and  O4_32
REMARK   10  A    between atoms: O4_32  and  C27_33
REMARK   11  A    between atoms: C30_36  and  C31_37
REMARK                            x       y       z     vdW  Elec       q    Type
REMARK                         _______ _______ _______ _____ _____    ______ ____
ROOT
ATOM      1  C2  UNL     1     -45.965  56.882   7.415  0.00  0.00    +0.172 A 
ATOM      2  C3  UNL     1     -45.993  55.879   6.426  0.00  0.00    +0.040 A 
ATOM      3  C4  UNL     1     -47.162  55.632   5.702  0.00  0.00    +0.005 A 
ATOM      4  C5  UNL     1     -48.314  56.392   5.941  0.00  0.00    +0.018 A 
ATOM      5  C21 UNL     1     -48.300  57.365   6.952  0.00  0.00    +0.041 A 
ATOM      6  C22 UNL     1     -47.124  57.629   7.680  0.00  0.00    +0.172 A 
ENDROOT
BRANCH   4   7
ATOM      7  C6  UNL     1     -49.551  56.177   5.167  0.00  0.00    +0.079 C 
ATOM      8  N1  UNL     1     -50.633  56.772   5.578  0.00  0.00    -0.172 NA
ATOM      9  N2  UNL     1     -51.830  56.823   4.824  0.00  0.00    -0.222 N 
ATOM     10  C14 UNL     1     -51.985  56.043   3.773  0.00  0.00    +0.253 C 
ATOM     11  O2  UNL     1     -53.144  56.095   2.996  0.00  0.00    -0.271 OA
ATOM     12  C15 UNL     1     -50.909  55.049   3.410  0.00  0.00    +0.091 C 
ATOM     13  C16 UNL     1     -51.151  53.724   4.158  0.00  0.00    +0.035 C 
ATOM     14  C17 UNL     1     -49.957  52.808   4.149  0.00  0.00    -0.030 C 
ATOM     15  C18 UNL     1     -48.711  53.243   3.921  0.00  0.00    -0.030 C 
ATOM     16  C19 UNL     1     -48.416  54.629   3.415  0.00  0.00    +0.032 C 
ATOM     17  C20 UNL     1     -49.531  55.644   3.746  0.00  0.00    +0.056 C 
BRANCH   9  18
ATOM     18  C7  UNL     1     -52.824  57.837   5.232  0.00  0.00    +0.108 C 
ATOM     19  C8  UNL     1     -52.840  59.036   4.258  0.00  0.00    +0.024 C 
ATOM     20  C9  UNL     1     -53.914  60.086   4.590  0.00  0.00    +0.002 C 
ATOM     21  C10 UNL     1     -53.521  60.956   5.798  0.00  0.00    +0.000 C 
ATOM     22  C11 UNL     1     -53.963  60.397   7.165  0.00  0.00    +0.000 C 
ATOM     23  C12 UNL     1     -53.891  58.867   7.330  0.00  0.00    +0.002 C 
ATOM     24  C13 UNL     1     -52.631  58.225   6.719  0.00  0.00    +0.024 C 
ENDBRANCH   9  18
ENDBRANCH   4   7
BRANCH   1  26
ATOM     25  C1  UNL     1     -43.951  56.192   8.731  0.00  0.00    +0.253 C 
ATOM     26  O1  UNL     1     -44.802  57.175   8.147  0.00  0.00    -0.468 OA
ENDBRANCH   1  26
BRANCH   6  27
ATOM     27  O3  UNL     1     -47.063  58.635   8.661  0.00  0.00    -0.472 OA
BRANCH  27  28
ATOM     28  C23 UNL     1     -47.822  59.843   8.638  0.00  0.00    +0.206 C 
BRANCH  28  29
ATOM     29  C24 UNL     1     -49.125  59.658   9.416  0.00  0.00    +0.051 C 
BRANCH  29  30
ATOM     30  C25 UNL     1     -49.700  61.010   9.862  0.00  0.00    +0.051 C 
BRANCH  30  31
ATOM     31  C26 UNL     1     -50.973  61.358   9.082  0.00  0.00    +0.206 C 
BRANCH  31  32
ATOM     32  O4  UNL     1     -50.701  61.433   7.681  0.00  0.00    -0.475 OA
BRANCH  32  33
ATOM     33  C27 UNL     1     -49.896  62.404   7.060  0.00  0.00    +0.139 A 
ATOM     34  C28 UNL     1     -48.742  62.083   6.316  0.00  0.00    +0.037 A 
ATOM     35  C29 UNL     1     -47.962  63.095   5.749  0.00  0.00    +0.006 A 
ATOM     36  C30 UNL     1     -48.327  64.443   5.897  0.00  0.00    +0.040 A 
ATOM     37  C32 UNL     1     -49.486  64.759   6.625  0.00  0.00    +0.006 A 
ATOM     38  C33 UNL     1     -50.260  63.748   7.200  0.00  0.00    +0.037 A 
BRANCH  36  39
ATOM     39  C31 UNL     1     -47.505  65.513   5.292  0.00  0.00    +0.208 A 
ATOM     40  N3  UNL     1     -47.749  66.101   4.102  0.00  0.00    -0.106 NA
ATOM     41  N4  UNL     1     -46.781  66.985   3.933  0.00  0.00    -0.021 NA
ATOM     42  N5  UNL     1     -45.968  66.957   4.974  0.00  0.00    -0.021 NA
ATOM     43  N6  UNL     1     -46.391  66.050   5.838  0.00  0.00    -0.106 NA
ENDBRANCH  36  39
ENDBRANCH  32  33
ENDBRANCH  31  32
ENDBRANCH  30  31
ENDBRANCH  29  30
ENDBRANCH  28  29
ENDBRANCH  27  28
ENDBRANCH   6  27
TORSDOF 11
ENDMDL
MODEL 3
REMARK VINA RESULT:      -7.3      2.960      6.532
REMARK  Name = ./data/4wxx_site_bc02/pdb/l1c2.pdb
REMARK  11 active torsions:
REMARK  status: ('A' for Active; 'I' for Inactive)
REMARK    1  A    between atoms: O1_2  and  C2_3
REMARK    2  A    between atoms: C5_6  and  C6_7
REMARK    3  A    between atoms: N2_9  and  C7_10
REMARK    4  A    between atoms: C22_26  and  O3_27
REMARK    5  A    between atoms: O3_27  and  C23_28
REMARK    6  A    between atoms: C23_28  and  C24_29
REMARK    7  A    between atoms: C24_29  and  C25_30
REMARK    8  A    between atoms: C25_30  and  C26_31
REMARK    9  A    between atoms: C26_31  and  O4_32
REMARK   10  A    between atoms: O4_32  and  C27_33
REMARK   11  A    between atoms: C30_36  and  C31_37
REMARK                            x       y       z     vdW  Elec       q    Type
REMARK                         _______ _______ _______ _____ _____    ______ ____
ROOT
ATOM      1  C2  UNL     1     -46.003  56.791   7.477  0.00  0.00    +0.172 A 
ATOM      2  C3  UNL     1     -46.048  55.779   6.498  0.00  0.00    +0.040 A 
ATOM      3  C4  UNL     1     -47.216  55.555   5.765  0.00  0.00    +0.005 A 
ATOM      4  C5  UNL     1     -48.350  56.347   5.986  0.00  0.00    +0.018 A 
ATOM      5  C21 UNL     1     -48.319  57.331   6.987  0.00  0.00    +0.041 A 
ATOM      6  C22 UNL     1     -47.144  57.571   7.724  0.00  0.00    +0.172 A 
ENDROOT
BRANCH   4   7
ATOM      7  C6  UNL     1     -49.584  56.158   5.202  0.00  0.00    +0.079 C 
ATOM      8  N1  UNL     1     -50.658  56.776   5.603  0.00  0.00    -0.172 NA
ATOM      9  N2  UNL     1     -51.847  56.850   4.839  0.00  0.00    -0.222 N 
ATOM     10  C14 UNL     1     -52.010  56.073   3.788  0.00  0.00    +0.253 C 
ATOM     11  O2  UNL     1     -53.161  56.148   3.002  0.00  0.00    -0.271 OA
ATOM     12  C15 UNL     1     -50.952  55.056   3.435  0.00  0.00    +0.091 C 
ATOM     13  C16 UNL     1     -51.228  53.737   4.183  0.00  0.00    +0.035 C 
ATOM     14  C17 UNL     1     -50.053  52.796   4.184  0.00  0.00    -0.030 C 
ATOM     15  C18 UNL     1     -48.796  53.205   3.966  0.00  0.00    -0.030 C 
ATOM     16  C19 UNL     1     -48.469  54.584   3.460  0.00  0.00    +0.032 C 
ATOM     17  C20 UNL     1     -49.564  55.622   3.781  0.00  0.00    +0.056 C 
BRANCH   9  18
ATOM     18  C7  UNL     1     -52.823  57.886   5.238  0.00  0.00    +0.108 C 
ATOM     19  C8  UNL     1     -52.755  59.115   4.305  0.00  0.00    +0.024 C 
ATOM     20  C9  UNL     1     -53.806  60.192   4.626  0.00  0.00    +0.002 C 
ATOM     21  C10 UNL     1     -53.437  61.008   5.877  0.00  0.00    +0.000 C 
ATOM     22  C11 UNL     1     -53.957  60.421   7.205  0.00  0.00    +0.000 C 
ATOM     23  C12 UNL     1     -53.945  58.885   7.321  0.00  0.00    +0.002 C 
ATOM     24  C13 UNL     1     -52.682  58.219   6.744  0.00  0.00    +0.024 C 
ENDBRANCH   9  18
ENDBRANCH   4   7
BRANCH   1  26
ATOM     25  C1  UNL     1     -43.514  56.901   7.719  0.00  0.00    +0.253 C 
ATOM     26  O1  UNL     1     -44.840  57.060   8.217  0.00  0.00    -0.468 OA
ENDBRANCH   1  26
BRANCH   6  27
ATOM     27  O3  UNL     1     -47.066  58.584   8.695  0.00  0.00    -0.472 OA
BRANCH  27  28
ATOM     28  C23 UNL     1     -48.166  59.379   9.135  0.00  0.00    +0.206 C 
BRANCH  28  29
ATOM     29  C24 UNL     1     -48.282  60.636   8.274  0.00  0.00    +0.051 C 
BRANCH  29  30
ATOM     30  C25 UNL     1     -49.619  60.667   7.518  0.00  0.00    +0.051 C 
BRANCH  30  31
ATOM     31  C26 UNL     1     -50.074  62.107   7.251  0.00  0.00    +0.206 C 
BRANCH  31  32
ATOM     32  O4  UNL     1     -49.182  62.757   6.343  0.00  0.00    -0.475 OA
BRANCH  32  33
ATOM     33  C27 UNL     1     -49.571  63.584   5.274  0.00  0.00    +0.139 A 
ATOM     34  C28 UNL     1     -48.738  64.586   4.737  0.00  0.00    +0.037 A 
ATOM     35  C29 UNL     1     -49.192  65.400   3.695  0.00  0.00    +0.006 A 
ATOM     36  C30 UNL     1     -50.476  65.218   3.158  0.00  0.00    +0.040 A 
ATOM     37  C32 UNL     1     -51.299  64.208   3.685  0.00  0.00    +0.006 A 
ATOM     38  C33 UNL     1     -50.849  63.401   4.732  0.00  0.00    +0.037 A 
BRANCH  36  39
ATOM     39  C31 UNL     1     -50.955  66.075   2.052  0.00  0.00    +0.208 A 
ATOM     40  N3  UNL     1     -52.144  65.945   1.426  0.00  0.00    -0.106 NA
ATOM     41  N4  UNL     1     -52.170  66.891   0.504  0.00  0.00    -0.021 NA
ATOM     42  N5  UNL     1     -51.049  67.587   0.551  0.00  0.00    -0.021 NA
ATOM     43  N6  UNL     1     -50.271  67.104   1.504  0.00  0.00    -0.106 NA
ENDBRANCH  36  39
ENDBRANCH  32  33
ENDBRANCH  31  32
ENDBRANCH  30  31
ENDBRANCH  29  30
ENDBRANCH  28  29
ENDBRANCH  27  28
ENDBRANCH   6  27
TORSDOF 11
ENDMDL
