MODEL 1
REMARK VINA RESULT:      -9.2      0.000      0.000
REMARK  Name = ./data/4wxx_site_bc02/pdb/l1c0.pdb
REMARK  11 active torsions:
REMARK  status: ('A' for Active; 'I' for Inactive)
REMARK    1  A    between atoms: O1_2  and  C2_3
REMARK    2  A    between atoms: C5_6  and  C6_7
REMARK    3  A    between atoms: N2_9  and  C7_10
REMARK    4  A    between atoms: C22_26  and  O3_27
REMARK    5  A    between atoms: O3_27  and  C23_28
REMARK    6  A    between atoms: C23_28  and  C24_29
REMARK    7  A    between atoms: C24_29  and  C25_30
REMARK    8  A    between atoms: C25_30  and  C26_31
REMARK    9  A    between atoms: C26_31  and  O4_32
REMARK   10  A    between atoms: O4_32  and  C27_33
REMARK   11  A    between atoms: C30_36  and  C31_37
REMARK                            x       y       z     vdW  Elec       q    Type
REMARK                         _______ _______ _______ _____ _____    ______ ____
ROOT
ATOM      1  C2  UNL     1     -48.737  59.202  10.405  0.00  0.00    +0.172 A 
ATOM      2  C3  UNL     1     -49.532  60.336  10.640  0.00  0.00    +0.040 A 
ATOM      3  C4  UNL     1     -49.910  61.166   9.585  0.00  0.00    +0.005 A 
ATOM      4  C5  UNL     1     -49.512  60.884   8.265  0.00  0.00    +0.018 A 
ATOM      5  C21 UNL     1     -48.727  59.739   8.033  0.00  0.00    +0.041 A 
ATOM      6  C22 UNL     1     -48.319  58.909   9.099  0.00  0.00    +0.172 A 
ENDROOT
BRANCH   4   7
ATOM      7  C6  UNL     1     -49.932  61.792   7.153  0.00  0.00    +0.079 C 
ATOM      8  N1  UNL     1     -49.029  62.526   6.574  0.00  0.00    -0.172 NA
ATOM      9  N2  UNL     1     -49.293  63.420   5.516  0.00  0.00    -0.222 N 
ATOM     10  C14 UNL     1     -50.433  63.373   4.863  0.00  0.00    +0.253 C 
ATOM     11  O2  UNL     1     -50.630  64.203   3.755  0.00  0.00    -0.271 OA
ATOM     12  C15 UNL     1     -51.500  62.359   5.257  0.00  0.00    +0.091 C 
ATOM     13  C16 UNL     1     -52.937  62.851   4.990  0.00  0.00    +0.035 C 
ATOM     14  C17 UNL     1     -53.208  64.076   5.809  0.00  0.00    -0.030 C 
ATOM     15  C18 UNL     1     -52.781  64.136   7.077  0.00  0.00    -0.030 C 
ATOM     16  C19 UNL     1     -52.098  62.961   7.738  0.00  0.00    +0.032 C 
ATOM     17  C20 UNL     1     -51.383  61.970   6.759  0.00  0.00    +0.056 C 
BRANCH   9  18
ATOM     18  C7  UNL     1     -48.199  64.343   5.144  0.00  0.00    +0.108 C 
ATOM     19  C8  UNL     1     -48.749  65.757   4.817  0.00  0.00    +0.024 C 
ATOM     20  C9  UNL     1     -47.909  66.485   3.755  0.00  0.00    +0.002 C 
ATOM     21  C10 UNL     1     -46.607  67.077   4.304  0.00  0.00    +0.000 C 
ATOM     22  C11 UNL     1     -45.662  66.029   4.906  0.00  0.00    +0.000 C 
ATOM     23  C12 UNL     1     -46.149  65.527   6.275  0.00  0.00    +0.002 C 
ATOM     24  C13 UNL     1     -47.061  64.292   6.200  0.00  0.00    +0.024 C 
ENDBRANCH   9  18
ENDBRANCH   4   7
BRANCH   1  26
ATOM     25  C1  UNL     1     -48.436  58.656  12.827  0.00  0.00    +0.253 C 
ATOM     26  O1  UNL     1     -48.337  58.344  11.441  0.00  0.00    -0.468 OA
ENDBRANCH   1  26
BRANCH   6  27
ATOM     27  O3  UNL     1     -47.503  57.781   8.907  0.00  0.00    -0.472 OA
BRANCH  27  28
ATOM     28  C23 UNL     1     -46.088  57.796   8.725  0.00  0.00    +0.206 C 
BRANCH  28  29
ATOM     29  C24 UNL     1     -45.478  56.450   9.125  0.00  0.00    +0.051 C 
BRANCH  29  30
ATOM     30  C25 UNL     1     -44.804  55.766   7.930  0.00  0.00    +0.051 C 
BRANCH  30  31
ATOM     31  C26 UNL     1     -45.341  56.305   6.604  0.00  0.00    +0.206 C 
BRANCH  31  32
ATOM     32  O4  UNL     1     -46.162  55.313   5.988  0.00  0.00    -0.475 OA
BRANCH  32  33
ATOM     33  C27 UNL     1     -47.515  55.483   5.667  0.00  0.00    +0.139 A 
ATOM     34  C28 UNL     1     -48.198  54.403   5.104  0.00  0.00    +0.037 A 
ATOM     35  C29 UNL     1     -49.538  54.523   4.732  0.00  0.00    +0.006 A 
ATOM     36  C30 UNL     1     -50.233  55.731   4.936  0.00  0.00    +0.040 A 
ATOM     37  C32 UNL     1     -49.549  56.812   5.528  0.00  0.00    +0.006 A 
ATOM     38  C33 UNL     1     -48.202  56.691   5.884  0.00  0.00    +0.037 A 
BRANCH  36  39
ATOM     39  C31 UNL     1     -51.655  55.864   4.528  0.00  0.00    +0.208 A 
ATOM     40  N3  UNL     1     -52.304  55.041   3.675  0.00  0.00    -0.106 NA
ATOM     41  N4  UNL     1     -53.543  55.498   3.609  0.00  0.00    -0.021 NA
ATOM     42  N5  UNL     1     -53.665  56.562   4.383  0.00  0.00    -0.021 NA
ATOM     43  N6  UNL     1     -52.509  56.814   4.970  0.00  0.00    -0.106 NA
ENDBRANCH  36  39
ENDBRANCH  32  33
ENDBRANCH  31  32
ENDBRANCH  30  31
ENDBRANCH  29  30
ENDBRANCH  28  29
ENDBRANCH  27  28
ENDBRANCH   6  27
TORSDOF 11
ENDMDL
MODEL 2
REMARK VINA RESULT:      -8.6      1.845      2.264
REMARK  Name = ./data/4wxx_site_bc02/pdb/l1c0.pdb
REMARK  11 active torsions:
REMARK  status: ('A' for Active; 'I' for Inactive)
REMARK    1  A    between atoms: O1_2  and  C2_3
REMARK    2  A    between atoms: C5_6  and  C6_7
REMARK    3  A    between atoms: N2_9  and  C7_10
REMARK    4  A    between atoms: C22_26  and  O3_27
REMARK    5  A    between atoms: O3_27  and  C23_28
REMARK    6  A    between atoms: C23_28  and  C24_29
REMARK    7  A    between atoms: C24_29  and  C25_30
REMARK    8  A    between atoms: C25_30  and  C26_31
REMARK    9  A    between atoms: C26_31  and  O4_32
REMARK   10  A    between atoms: O4_32  and  C27_33
REMARK   11  A    between atoms: C30_36  and  C31_37
REMARK                            x       y       z     vdW  Elec       q    Type
REMARK                         _______ _______ _______ _____ _____    ______ ____
ROOT
ATOM      1  C2  UNL     1     -48.259  58.605  10.799  0.00  0.00    +0.172 A 
ATOM      2  C3  UNL     1     -49.166  59.601  11.194  0.00  0.00    +0.040 A 
ATOM      3  C4  UNL     1     -49.759  60.434  10.245  0.00  0.00    +0.005 A 
ATOM      4  C5  UNL     1     -49.470  60.291   8.877  0.00  0.00    +0.018 A 
ATOM      5  C21 UNL     1     -48.571  59.281   8.484  0.00  0.00    +0.041 A 
ATOM      6  C22 UNL     1     -47.947  58.451   9.441  0.00  0.00    +0.172 A 
ENDROOT
BRANCH   4   7
ATOM      7  C6  UNL     1     -50.120  61.198   7.881  0.00  0.00    +0.079 C 
ATOM      8  N1  UNL     1     -49.396  62.110   7.303  0.00  0.00    -0.172 NA
ATOM      9  N2  UNL     1     -49.887  63.025   6.349  0.00  0.00    -0.222 N 
ATOM     10  C14 UNL     1     -51.057  62.843   5.780  0.00  0.00    +0.253 C 
ATOM     11  O2  UNL     1     -51.476  63.709   4.765  0.00  0.00    -0.271 OA
ATOM     12  C15 UNL     1     -51.915  61.642   6.162  0.00  0.00    +0.091 C 
ATOM     13  C16 UNL     1     -53.429  61.914   6.044  0.00  0.00    +0.035 C 
ATOM     14  C17 UNL     1     -53.815  63.015   6.985  0.00  0.00    -0.030 C 
ATOM     15  C18 UNL     1     -53.295  63.048   8.218  0.00  0.00    -0.030 C 
ATOM     16  C19 UNL     1     -52.383  61.954   8.723  0.00  0.00    +0.032 C 
ATOM     17  C20 UNL     1     -51.610  61.168   7.611  0.00  0.00    +0.056 C 
BRANCH   9  18
ATOM     18  C7  UNL     1     -48.986  64.138   5.979  0.00  0.00    +0.108 C 
ATOM     19  C8  UNL     1     -47.497  63.726   6.134  0.00  0.00    +0.024 C 
ATOM     20  C9  UNL     1     -46.595  64.909   6.521  0.00  0.00    +0.002 C 
ATOM     21  C10 UNL     1     -46.256  65.831   5.345  0.00  0.00    +0.000 C 
ATOM     22  C11 UNL     1     -47.488  66.469   4.692  0.00  0.00    +0.000 C 
ATOM     23  C12 UNL     1     -48.274  65.466   3.831  0.00  0.00    +0.002 C 
ATOM     24  C13 UNL     1     -49.380  64.720   4.594  0.00  0.00    +0.024 C 
ENDBRANCH   9  18
ENDBRANCH   4   7
BRANCH   1  26
ATOM     25  C1  UNL     1     -46.553  56.884  11.418  0.00  0.00    +0.253 C 
ATOM     26  O1  UNL     1     -47.643  57.748  11.724  0.00  0.00    -0.468 OA
ENDBRANCH   1  26
BRANCH   6  27
ATOM     27  O3  UNL     1     -47.016  57.460   9.087  0.00  0.00    -0.472 OA
BRANCH  27  28
ATOM     28  C23 UNL     1     -45.867  57.651   8.261  0.00  0.00    +0.206 C 
BRANCH  28  29
ATOM     29  C24 UNL     1     -45.174  56.315   7.984  0.00  0.00    +0.051 C 
BRANCH  29  30
ATOM     30  C25 UNL     1     -45.649  55.706   6.659  0.00  0.00    +0.051 C 
BRANCH  30  31
ATOM     31  C26 UNL     1     -46.783  56.525   6.043  0.00  0.00    +0.206 C 
BRANCH  31  32
ATOM     32  O4  UNL     1     -47.485  55.723   5.096  0.00  0.00    -0.475 OA
BRANCH  32  33
ATOM     33  C27 UNL     1     -48.637  54.976   5.378  0.00  0.00    +0.139 A 
ATOM     34  C28 UNL     1     -48.546  53.583   5.335  0.00  0.00    +0.037 A 
ATOM     35  C29 UNL     1     -49.668  52.788   5.573  0.00  0.00    +0.006 A 
ATOM     36  C30 UNL     1     -50.910  53.375   5.882  0.00  0.00    +0.040 A 
ATOM     37  C32 UNL     1     -50.994  54.780   5.951  0.00  0.00    +0.006 A 
ATOM     38  C33 UNL     1     -49.871  55.573   5.695  0.00  0.00    +0.037 A 
BRANCH  36  39
ATOM     39  C31 UNL     1     -52.107  52.529   6.123  0.00  0.00    +0.208 A 
ATOM     40  N3  UNL     1     -52.701  51.734   5.207  0.00  0.00    -0.106 NA
ATOM     41  N4  UNL     1     -53.705  51.148   5.836  0.00  0.00    -0.021 NA
ATOM     42  N5  UNL     1     -53.742  51.561   7.091  0.00  0.00    -0.021 NA
ATOM     43  N6  UNL     1     -52.760  52.418   7.302  0.00  0.00    -0.106 NA
ENDBRANCH  36  39
ENDBRANCH  32  33
ENDBRANCH  31  32
ENDBRANCH  30  31
ENDBRANCH  29  30
ENDBRANCH  28  29
ENDBRANCH  27  28
ENDBRANCH   6  27
TORSDOF 11
ENDMDL
MODEL 3
REMARK VINA RESULT:      -6.8      3.864      6.297
REMARK  Name = ./data/4wxx_site_bc02/pdb/l1c0.pdb
REMARK  11 active torsions:
REMARK  status: ('A' for Active; 'I' for Inactive)
REMARK    1  A    between atoms: O1_2  and  C2_3
REMARK    2  A    between atoms: C5_6  and  C6_7
REMARK    3  A    between atoms: N2_9  and  C7_10
REMARK    4  A    between atoms: C22_26  and  O3_27
REMARK    5  A    between atoms: O3_27  and  C23_28
REMARK    6  A    between atoms: C23_28  and  C24_29
REMARK    7  A    between atoms: C24_29  and  C25_30
REMARK    8  A    between atoms: C25_30  and  C26_31
REMARK    9  A    between atoms: C26_31  and  O4_32
REMARK   10  A    between atoms: O4_32  and  C27_33
REMARK   11  A    between atoms: C30_36  and  C31_37
REMARK                            x       y       z     vdW  Elec       q    Type
REMARK                         _______ _______ _______ _____ _____    ______ ____
ROOT
ATOM      1  C2  UNL     1     -51.548  56.588   5.535  0.00  0.00    +0.172 A 
ATOM      2  C3  UNL     1     -51.041  57.457   6.516  0.00  0.00    +0.040 A 
ATOM      3  C4  UNL     1     -51.381  58.809   6.506  0.00  0.00    +0.005 A 
ATOM      4  C5  UNL     1     -52.240  59.332   5.523  0.00  0.00    +0.018 A 
ATOM      5  C21 UNL     1     -52.756  58.454   4.550  0.00  0.00    +0.041 A 
ATOM      6  C22 UNL     1     -52.397  57.090   4.538  0.00  0.00    +0.172 A 
ENDROOT
BRANCH   4   7
ATOM      7  C6  UNL     1     -52.587  60.787   5.536  0.00  0.00    +0.079 C 
ATOM      8  N1  UNL     1     -52.868  61.371   4.409  0.00  0.00    -0.172 NA
ATOM      9  N2  UNL     1     -53.210  62.733   4.285  0.00  0.00    -0.222 N 
ATOM     10  C14 UNL     1     -53.529  63.446   5.343  0.00  0.00    +0.253 C 
ATOM     11  O2  UNL     1     -53.961  64.767   5.182  0.00  0.00    -0.271 OA
ATOM     12  C15 UNL     1     -53.513  62.811   6.728  0.00  0.00    +0.091 C 
ATOM     13  C16 UNL     1     -53.167  63.809   7.852  0.00  0.00    +0.035 C 
ATOM     14  C17 UNL     1     -51.789  64.355   7.630  0.00  0.00    -0.030 C 
ATOM     15  C18 UNL     1     -50.806  63.538   7.233  0.00  0.00    -0.030 C 
ATOM     16  C19 UNL     1     -51.028  62.051   7.076  0.00  0.00    +0.032 C 
ATOM     17  C20 UNL     1     -52.508  61.626   6.794  0.00  0.00    +0.056 C 
BRANCH   9  18
ATOM     18  C7  UNL     1     -53.263  63.277   2.912  0.00  0.00    +0.108 C 
ATOM     19  C8  UNL     1     -51.981  64.090   2.584  0.00  0.00    +0.024 C 
ATOM     20  C9  UNL     1     -52.250  65.246   1.606  0.00  0.00    +0.002 C 
ATOM     21  C10 UNL     1     -52.383  64.796   0.148  0.00  0.00    +0.000 C 
ATOM     22  C11 UNL     1     -53.530  63.805  -0.086  0.00  0.00    +0.000 C 
ATOM     23  C12 UNL     1     -53.199  62.399   0.440  0.00  0.00    +0.002 C 
ATOM     24  C13 UNL     1     -53.627  62.160   1.896  0.00  0.00    +0.024 C 
ENDBRANCH   9  18
ENDBRANCH   4   7
BRANCH   1  26
ATOM     25  C1  UNL     1     -52.032  54.199   6.095  0.00  0.00    +0.253 C 
ATOM     26  O1  UNL     1     -51.229  55.221   5.513  0.00  0.00    -0.468 OA
ENDBRANCH   1  26
BRANCH   6  27
ATOM     27  O3  UNL     1     -52.862  56.196   3.559  0.00  0.00    -0.472 OA
BRANCH  27  28
ATOM     28  C23 UNL     1     -52.163  55.818   2.374  0.00  0.00    +0.206 C 
BRANCH  28  29
ATOM     29  C24 UNL     1     -51.046  54.823   2.701  0.00  0.00    +0.051 C 
BRANCH  29  30
ATOM     30  C25 UNL     1     -49.665  55.420   2.407  0.00  0.00    +0.051 C 
BRANCH  30  31
ATOM     31  C26 UNL     1     -48.641  55.002   3.461  0.00  0.00    +0.206 C 
BRANCH  31  32
ATOM     32  O4  UNL     1     -48.424  56.085   4.365  0.00  0.00    -0.475 OA
BRANCH  32  33
ATOM     33  C27 UNL     1     -47.567  56.042   5.473  0.00  0.00    +0.139 A 
ATOM     34  C28 UNL     1     -47.647  57.077   6.407  0.00  0.00    +0.037 A 
ATOM     35  C29 UNL     1     -46.796  57.106   7.513  0.00  0.00    +0.006 A 
ATOM     36  C30 UNL     1     -45.853  56.080   7.718  0.00  0.00    +0.040 A 
ATOM     37  C32 UNL     1     -45.791  55.023   6.788  0.00  0.00    +0.006 A 
ATOM     38  C33 UNL     1     -46.636  55.007   5.673  0.00  0.00    +0.037 A 
BRANCH  36  39
ATOM     39  C31 UNL     1     -44.938  56.118   8.888  0.00  0.00    +0.208 A 
ATOM     40  N3  UNL     1     -45.315  56.308  10.171  0.00  0.00    -0.106 NA
ATOM     41  N4  UNL     1     -44.204  56.247  10.885  0.00  0.00    -0.021 NA
ATOM     42  N5  UNL     1     -43.175  56.032  10.085  0.00  0.00    -0.021 NA
ATOM     43  N6  UNL     1     -43.597  55.944   8.837  0.00  0.00    -0.106 NA
ENDBRANCH  36  39
ENDBRANCH  32  33
ENDBRANCH  31  32
ENDBRANCH  30  31
ENDBRANCH  29  30
ENDBRANCH  28  29
ENDBRANCH  27  28
ENDBRANCH   6  27
TORSDOF 11
ENDMDL
