MODEL 1
REMARK VINA RESULT:      -9.6      0.000      0.000
REMARK  Name = ./data/4wxx_site_bc02/pdb/l1c2.pdb
REMARK  11 active torsions:
REMARK  status: ('A' for Active; 'I' for Inactive)
REMARK    1  A    between atoms: O1_2  and  C2_3
REMARK    2  A    between atoms: C5_6  and  C6_7
REMARK    3  A    between atoms: N2_9  and  C7_10
REMARK    4  A    between atoms: C22_26  and  O3_27
REMARK    5  A    between atoms: O3_27  and  C23_28
REMARK    6  A    between atoms: C23_28  and  C24_29
REMARK    7  A    between atoms: C24_29  and  C25_30
REMARK    8  A    between atoms: C25_30  and  C26_31
REMARK    9  A    between atoms: C26_31  and  O4_32
REMARK   10  A    between atoms: O4_32  and  C27_33
REMARK   11  A    between atoms: C30_36  and  C31_37
REMARK                            x       y       z     vdW  Elec       q    Type
REMARK                         _______ _______ _______ _____ _____    ______ ____
ROOT
ATOM      1  C2  UNL     1     -71.572  63.977 -12.746  0.00  0.00    +0.172 A 
ATOM      2  C3  UNL     1     -70.180  64.098 -12.565  0.00  0.00    +0.040 A 
ATOM      3  C4  UNL     1     -69.300  63.279 -13.275  0.00  0.00    +0.005 A 
ATOM      4  C5  UNL     1     -69.793  62.339 -14.189  0.00  0.00    +0.018 A 
ATOM      5  C21 UNL     1     -71.180  62.190 -14.344  0.00  0.00    +0.041 A 
ATOM      6  C22 UNL     1     -72.076  63.017 -13.640  0.00  0.00    +0.172 A 
ENDROOT
BRANCH   4   7
ATOM      7  C6  UNL     1     -68.886  61.487 -14.981  0.00  0.00    +0.079 C 
ATOM      8  N1  UNL     1     -67.896  60.916 -14.359  0.00  0.00    -0.172 NA
ATOM      9  N2  UNL     1     -67.079  59.918 -14.942  0.00  0.00    -0.222 N 
ATOM     10  C14 UNL     1     -67.122  59.702 -16.241  0.00  0.00    +0.253 C 
ATOM     11  O2  UNL     1     -66.348  58.704 -16.837  0.00  0.00    -0.271 OA
ATOM     12  C15 UNL     1     -68.000  60.563 -17.118  0.00  0.00    +0.091 C 
ATOM     13  C16 UNL     1     -67.217  61.811 -17.570  0.00  0.00    +0.035 C 
ATOM     14  C17 UNL     1     -68.097  62.893 -18.136  0.00  0.00    -0.030 C 
ATOM     15  C18 UNL     1     -69.410  62.968 -17.879  0.00  0.00    -0.030 C 
ATOM     16  C19 UNL     1     -70.170  61.855 -17.210  0.00  0.00    +0.032 C 
ATOM     17  C20 UNL     1     -69.274  60.945 -16.345  0.00  0.00    +0.056 C 
BRANCH   9  18
ATOM     18  C7  UNL     1     -66.265  59.106 -14.014  0.00  0.00    +0.108 C 
ATOM     19  C8  UNL     1     -66.555  57.598 -14.182  0.00  0.00    +0.024 C 
ATOM     20  C9  UNL     1     -65.675  56.699 -13.295  0.00  0.00    +0.002 C 
ATOM     21  C10 UNL     1     -66.128  56.715 -11.824  0.00  0.00    +0.000 C 
ATOM     22  C11 UNL     1     -65.481  57.818 -10.963  0.00  0.00    +0.000 C 
ATOM     23  C12 UNL     1     -65.249  59.173 -11.656  0.00  0.00    +0.002 C 
ATOM     24  C13 UNL     1     -66.409  59.626 -12.562  0.00  0.00    +0.024 C 
ENDBRANCH   9  18
ENDBRANCH   4   7
BRANCH   1  26
ATOM     25  C1  UNL     1     -72.223  65.434 -10.818  0.00  0.00    +0.253 C 
ATOM     26  O1  UNL     1     -72.487  64.797 -12.065  0.00  0.00    -0.468 OA
ENDBRANCH   1  26
BRANCH   6  27
ATOM     27  O3  UNL     1     -73.468  62.929 -13.814  0.00  0.00    -0.472 OA
BRANCH  27  28
ATOM     28  C23 UNL     1     -74.312  61.979 -13.166  0.00  0.00    +0.206 C 
BRANCH  28  29
ATOM     29  C24 UNL     1     -74.350  62.251 -11.662  0.00  0.00    +0.051 C 
BRANCH  29  30
ATOM     30  C25 UNL     1     -73.464  61.256 -10.897  0.00  0.00    +0.051 C 
BRANCH  30  31
ATOM     31  C26 UNL     1     -73.454  59.882 -11.579  0.00  0.00    +0.206 C 
BRANCH  31  32
ATOM     32  O4  UNL     1     -74.395  59.005 -10.957  0.00  0.00    -0.475 OA
BRANCH  32  33
ATOM     33  C27 UNL     1     -75.665  59.379 -10.482  0.00  0.00    +0.139 A 
ATOM     34  C28 UNL     1     -76.807  59.435 -11.308  0.00  0.00    +0.037 A 
ATOM     35  C29 UNL     1     -78.037  59.846 -10.786  0.00  0.00    +0.006 A 
ATOM     36  C30 UNL     1     -78.155  60.192  -9.430  0.00  0.00    +0.040 A 
ATOM     37  C32 UNL     1     -77.019  60.121  -8.607  0.00  0.00    +0.006 A 
ATOM     38  C33 UNL     1     -75.788  59.719  -9.130  0.00  0.00    +0.037 A 
BRANCH  36  39
ATOM     39  C31 UNL     1     -79.458  60.622  -8.877  0.00  0.00    +0.208 A 
ATOM     40  N3  UNL     1     -79.661  61.740  -8.149  0.00  0.00    -0.106 NA
ATOM     41  N4  UNL     1     -80.948  61.742  -7.847  0.00  0.00    -0.021 NA
ATOM     42  N5  UNL     1     -81.528  60.676  -8.366  0.00  0.00    -0.021 NA
ATOM     43  N6  UNL     1     -80.627  59.957  -9.014  0.00  0.00    -0.106 NA
ENDBRANCH  36  39
ENDBRANCH  32  33
ENDBRANCH  31  32
ENDBRANCH  30  31
ENDBRANCH  29  30
ENDBRANCH  28  29
ENDBRANCH  27  28
ENDBRANCH   6  27
TORSDOF 11
ENDMDL
MODEL 2
REMARK VINA RESULT:      -8.6      1.206      1.959
REMARK  Name = ./data/4wxx_site_bc02/pdb/l1c2.pdb
REMARK  11 active torsions:
REMARK  status: ('A' for Active; 'I' for Inactive)
REMARK    1  A    between atoms: O1_2  and  C2_3
REMARK    2  A    between atoms: C5_6  and  C6_7
REMARK    3  A    between atoms: N2_9  and  C7_10
REMARK    4  A    between atoms: C22_26  and  O3_27
REMARK    5  A    between atoms: O3_27  and  C23_28
REMARK    6  A    between atoms: C23_28  and  C24_29
REMARK    7  A    between atoms: C24_29  and  C25_30
REMARK    8  A    between atoms: C25_30  and  C26_31
REMARK    9  A    between atoms: C26_31  and  O4_32
REMARK   10  A    between atoms: O4_32  and  C27_33
REMARK   11  A    between atoms: C30_36  and  C31_37
REMARK                            x       y       z     vdW  Elec       q    Type
REMARK                         _______ _______ _______ _____ _____    ______ ____
ROOT
ATOM      1  C2  UNL     1     -72.725  63.752 -14.238  0.00  0.00    +0.172 A 
ATOM      2  C3  UNL     1     -72.815  62.851 -15.318  0.00  0.00    +0.040 A 
ATOM      3  C4  UNL     1     -71.660  62.302 -15.880  0.00  0.00    +0.005 A 
ATOM      4  C5  UNL     1     -70.400  62.630 -15.364  0.00  0.00    +0.018 A 
ATOM      5  C21 UNL     1     -70.305  63.556 -14.314  0.00  0.00    +0.041 A 
ATOM      6  C22 UNL     1     -71.463  64.107 -13.733  0.00  0.00    +0.172 A 
ENDROOT
BRANCH   4   7
ATOM      7  C6  UNL     1     -69.167  62.038 -15.914  0.00  0.00    +0.079 C 
ATOM      8  N1  UNL     1     -68.285  61.582 -15.072  0.00  0.00    -0.172 NA
ATOM      9  N2  UNL     1     -67.163  60.810 -15.457  0.00  0.00    -0.222 N 
ATOM     10  C14 UNL     1     -66.816  60.731 -16.726  0.00  0.00    +0.253 C 
ATOM     11  O2  UNL     1     -65.731  59.952 -17.134  0.00  0.00    -0.271 OA
ATOM     12  C15 UNL     1     -67.580  61.517 -17.764  0.00  0.00    +0.091 C 
ATOM     13  C16 UNL     1     -66.966  62.923 -17.907  0.00  0.00    +0.035 C 
ATOM     14  C17 UNL     1     -67.858  63.891 -18.636  0.00  0.00    -0.030 C 
ATOM     15  C18 UNL     1     -69.180  63.710 -18.755  0.00  0.00    -0.030 C 
ATOM     16  C19 UNL     1     -69.857  62.417 -18.391  0.00  0.00    +0.032 C 
ATOM     17  C20 UNL     1     -69.063  61.587 -17.361  0.00  0.00    +0.056 C 
BRANCH   9  18
ATOM     18  C7  UNL     1     -66.483  60.055 -14.384  0.00  0.00    +0.108 C 
ATOM     19  C8  UNL     1     -66.904  58.569 -14.386  0.00  0.00    +0.024 C 
ATOM     20  C9  UNL     1     -66.164  57.717 -13.339  0.00  0.00    +0.002 C 
ATOM     21  C10 UNL     1     -66.694  57.960 -11.915  0.00  0.00    +0.000 C 
ATOM     22  C11 UNL     1     -65.995  59.103 -11.153  0.00  0.00    +0.000 C 
ATOM     23  C12 UNL     1     -65.598  60.334 -11.989  0.00  0.00    +0.002 C 
ATOM     24  C13 UNL     1     -66.657  60.766 -13.020  0.00  0.00    +0.024 C 
ENDBRANCH   9  18
ENDBRANCH   4   7
BRANCH   1  26
ATOM     25  C1  UNL     1     -74.995  63.552 -13.205  0.00  0.00    +0.253 C 
ATOM     26  O1  UNL     1     -73.864  64.306 -13.633  0.00  0.00    -0.468 OA
ENDBRANCH   1  26
BRANCH   6  27
ATOM     27  O3  UNL     1     -71.402  64.995 -12.645  0.00  0.00    -0.472 OA
BRANCH  27  28
ATOM     28  C23 UNL     1     -71.966  64.747 -11.358  0.00  0.00    +0.206 C 
BRANCH  28  29
ATOM     29  C24 UNL     1     -71.474  63.403 -10.820  0.00  0.00    +0.051 C 
BRANCH  29  30
ATOM     30  C25 UNL     1     -72.642  62.558 -10.292  0.00  0.00    +0.051 C 
BRANCH  30  31
ATOM     31  C26 UNL     1     -73.172  61.606 -11.371  0.00  0.00    +0.206 C 
BRANCH  31  32
ATOM     32  O4  UNL     1     -73.833  60.488 -10.775  0.00  0.00    -0.475 OA
BRANCH  32  33
ATOM     33  C27 UNL     1     -75.140  60.497 -10.255  0.00  0.00    +0.139 A 
ATOM     34  C28 UNL     1     -75.717  59.385  -9.609  0.00  0.00    +0.037 A 
ATOM     35  C29 UNL     1     -77.033  59.444  -9.142  0.00  0.00    +0.006 A 
ATOM     36  C30 UNL     1     -77.791  60.616  -9.294  0.00  0.00    +0.040 A 
ATOM     37  C32 UNL     1     -77.208  61.727  -9.925  0.00  0.00    +0.006 A 
ATOM     38  C33 UNL     1     -75.896  61.667 -10.400  0.00  0.00    +0.037 A 
BRANCH  36  39
ATOM     39  C31 UNL     1     -79.182  60.679  -8.795  0.00  0.00    +0.208 A 
ATOM     40  N3  UNL     1     -80.106  59.707  -8.945  0.00  0.00    -0.106 NA
ATOM     41  N4  UNL     1     -81.205  60.165  -8.371  0.00  0.00    -0.021 NA
ATOM     42  N5  UNL     1     -80.980  61.369  -7.879  0.00  0.00    -0.021 NA
ATOM     43  N6  UNL     1     -79.729  61.719  -8.127  0.00  0.00    -0.106 NA
ENDBRANCH  36  39
ENDBRANCH  32  33
ENDBRANCH  31  32
ENDBRANCH  30  31
ENDBRANCH  29  30
ENDBRANCH  28  29
ENDBRANCH  27  28
ENDBRANCH   6  27
TORSDOF 11
ENDMDL
