MODEL 1
REMARK VINA RESULT:       4.2      0.000      0.000
REMARK  Name = ./data/4wxx_site_bc02/pdb/l1c1.pdb
REMARK  11 active torsions:
REMARK  status: ('A' for Active; 'I' for Inactive)
REMARK    1  A    between atoms: O1_2  and  C2_3
REMARK    2  A    between atoms: C5_6  and  C6_7
REMARK    3  A    between atoms: N2_9  and  C7_10
REMARK    4  A    between atoms: C22_26  and  O3_27
REMARK    5  A    between atoms: O3_27  and  C23_28
REMARK    6  A    between atoms: C23_28  and  C24_29
REMARK    7  A    between atoms: C24_29  and  C25_30
REMARK    8  A    between atoms: C25_30  and  C26_31
REMARK    9  A    between atoms: C26_31  and  O4_32
REMARK   10  A    between atoms: O4_32  and  C27_33
REMARK   11  A    between atoms: C30_36  and  C31_37
REMARK                            x       y       z     vdW  Elec       q    Type
REMARK                         _______ _______ _______ _____ _____    ______ ____
ROOT
ATOM      1  C2  UNL     1     -87.737  50.498  11.390  0.00  0.00    +0.172 A 
ATOM      2  C3  UNL     1     -88.975  51.149  11.534  0.00  0.00    +0.040 A 
ATOM      3  C4  UNL     1     -89.276  52.278  10.771  0.00  0.00    +0.005 A 
ATOM      4  C5  UNL     1     -88.355  52.780   9.832  0.00  0.00    +0.018 A 
ATOM      5  C21 UNL     1     -87.122  52.113   9.681  0.00  0.00    +0.041 A 
ATOM      6  C22 UNL     1     -86.803  50.988  10.466  0.00  0.00    +0.172 A 
ENDROOT
BRANCH   4   7
ATOM      7  C6  UNL     1     -88.644  54.001   9.017  0.00  0.00    +0.079 C 
ATOM      8  N1  UNL     1     -87.893  54.242   7.986  0.00  0.00    -0.172 NA
ATOM      9  N2  UNL     1     -88.003  55.368   7.149  0.00  0.00    -0.222 N 
ATOM     10  C14 UNL     1     -89.007  56.206   7.259  0.00  0.00    +0.253 C 
ATOM     11  O2  UNL     1     -89.143  57.250   6.338  0.00  0.00    -0.271 OA
ATOM     12  C15 UNL     1     -90.073  56.032   8.328  0.00  0.00    +0.091 C 
ATOM     13  C16 UNL     1     -90.498  57.428   8.893  0.00  0.00    +0.035 C 
ATOM     14  C17 UNL     1     -90.964  57.385  10.323  0.00  0.00    -0.030 C 
ATOM     15  C18 UNL     1     -90.312  56.630  11.212  0.00  0.00    -0.030 C 
ATOM     16  C19 UNL     1     -89.211  55.729  10.735  0.00  0.00    +0.032 C 
ATOM     17  C20 UNL     1     -89.679  55.015   9.450  0.00  0.00    +0.056 C 
BRANCH   9  18
ATOM     18  C7  UNL     1     -86.960  55.501   6.106  0.00  0.00    +0.108 C 
ATOM     19  C8  UNL     1     -85.773  54.555   6.399  0.00  0.00    +0.024 C 
ATOM     20  C9  UNL     1     -84.481  54.951   5.673  0.00  0.00    +0.002 C 
ATOM     21  C10 UNL     1     -84.619  54.983   4.143  0.00  0.00    +0.000 C 
ATOM     22  C11 UNL     1     -85.349  56.244   3.649  0.00  0.00    +0.000 C 
ATOM     23  C12 UNL     1     -86.884  56.120   3.587  0.00  0.00    +0.002 C 
ATOM     24  C13 UNL     1     -87.551  55.278   4.692  0.00  0.00    +0.024 C 
ENDBRANCH   9  18
ENDBRANCH   4   7
BRANCH   1  26
ATOM     25  C1  UNL     1     -88.310  48.637  12.962  0.00  0.00    +0.253 C 
ATOM     26  O1  UNL     1     -87.398  49.364  12.146  0.00  0.00    -0.468 OA
ENDBRANCH   1  26
BRANCH   6  27
ATOM     27  O3  UNL     1     -85.566  50.333  10.363  0.00  0.00    -0.472 OA
BRANCH  27  28
ATOM     28  C23 UNL     1     -84.337  50.969  10.016  0.00  0.00    +0.206 C 
BRANCH  28  29
ATOM     29  C24 UNL     1     -83.222  49.930   9.898  0.00  0.00    +0.051 C 
BRANCH  29  30
ATOM     30  C25 UNL     1     -81.854  50.539  10.241  0.00  0.00    +0.051 C 
BRANCH  30  31
ATOM     31  C26 UNL     1     -80.849  49.468  10.662  0.00  0.00    +0.206 C 
BRANCH  31  32
ATOM     32  O4  UNL     1     -80.455  48.688   9.535  0.00  0.00    -0.475 OA
BRANCH  32  33
ATOM     33  C27 UNL     1     -80.630  49.088   8.201  0.00  0.00    +0.139 A 
ATOM     34  C28 UNL     1     -79.610  48.971   7.238  0.00  0.00    +0.037 A 
ATOM     35  C29 UNL     1     -79.833  49.378   5.920  0.00  0.00    +0.006 A 
ATOM     36  C30 UNL     1     -81.079  49.904   5.531  0.00  0.00    +0.040 A 
ATOM     37  C32 UNL     1     -82.093  50.020   6.500  0.00  0.00    +0.006 A 
ATOM     38  C33 UNL     1     -81.866  49.620   7.820  0.00  0.00    +0.037 A 
BRANCH  36  39
ATOM     39  C31 UNL     1     -81.317  50.323   4.124  0.00  0.00    +0.208 A 
ATOM     40  N3  UNL     1     -80.640  51.296   3.474  0.00  0.00    -0.106 NA
ATOM     41  N4  UNL     1     -81.151  51.337   2.255  0.00  0.00    -0.021 NA
ATOM     42  N5  UNL     1     -82.107  50.431   2.145  0.00  0.00    -0.021 NA
ATOM     43  N6  UNL     1     -82.235  49.783   3.291  0.00  0.00    -0.106 NA
ENDBRANCH  36  39
ENDBRANCH  32  33
ENDBRANCH  31  32
ENDBRANCH  30  31
ENDBRANCH  29  30
ENDBRANCH  28  29
ENDBRANCH  27  28
ENDBRANCH   6  27
TORSDOF 11
ENDMDL
MODEL 2
REMARK VINA RESULT:       5.5      3.462      4.405
REMARK  Name = ./data/4wxx_site_bc02/pdb/l1c1.pdb
REMARK  11 active torsions:
REMARK  status: ('A' for Active; 'I' for Inactive)
REMARK    1  A    between atoms: O1_2  and  C2_3
REMARK    2  A    between atoms: C5_6  and  C6_7
REMARK    3  A    between atoms: N2_9  and  C7_10
REMARK    4  A    between atoms: C22_26  and  O3_27
REMARK    5  A    between atoms: O3_27  and  C23_28
REMARK    6  A    between atoms: C23_28  and  C24_29
REMARK    7  A    between atoms: C24_29  and  C25_30
REMARK    8  A    between atoms: C25_30  and  C26_31
REMARK    9  A    between atoms: C26_31  and  O4_32
REMARK   10  A    between atoms: O4_32  and  C27_33
REMARK   11  A    between atoms: C30_36  and  C31_37
REMARK                            x       y       z     vdW  Elec       q    Type
REMARK                         _______ _______ _______ _____ _____    ______ ____
ROOT
ATOM      1  C2  UNL     1     -89.877  50.224  10.586  0.00  0.00    +0.172 A 
ATOM      2  C3  UNL     1     -90.915  50.713   9.774  0.00  0.00    +0.040 A 
ATOM      3  C4  UNL     1     -90.769  51.917   9.083  0.00  0.00    +0.005 A 
ATOM      4  C5  UNL     1     -89.577  52.659   9.174  0.00  0.00    +0.018 A 
ATOM      5  C21 UNL     1     -88.534  52.155   9.976  0.00  0.00    +0.041 A 
ATOM      6  C22 UNL     1     -88.685  50.952  10.694  0.00  0.00    +0.172 A 
ENDROOT
BRANCH   4   7
ATOM      7  C6  UNL     1     -89.402  53.963   8.461  0.00  0.00    +0.079 C 
ATOM      8  N1  UNL     1     -88.465  54.053   7.568  0.00  0.00    -0.172 NA
ATOM      9  N2  UNL     1     -88.140  55.218   6.847  0.00  0.00    -0.222 N 
ATOM     10  C14 UNL     1     -88.890  56.293   6.913  0.00  0.00    +0.253 C 
ATOM     11  O2  UNL     1     -88.600  57.391   6.098  0.00  0.00    -0.271 OA
ATOM     12  C15 UNL     1     -90.116  56.353   7.810  0.00  0.00    +0.091 C 
ATOM     13  C16 UNL     1     -90.236  57.772   8.459  0.00  0.00    +0.035 C 
ATOM     14  C17 UNL     1     -90.911  57.766   9.804  0.00  0.00    -0.030 C 
ATOM     15  C18 UNL     1     -90.628  56.801  10.685  0.00  0.00    -0.030 C 
ATOM     16  C19 UNL     1     -89.747  55.664  10.263  0.00  0.00    +0.032 C 
ATOM     17  C20 UNL     1     -90.184  55.194   8.860  0.00  0.00    +0.056 C 
BRANCH   9  18
ATOM     18  C7  UNL     1     -86.952  55.123   5.969  0.00  0.00    +0.108 C 
ATOM     19  C8  UNL     1     -87.073  56.105   4.781  0.00  0.00    +0.024 C 
ATOM     20  C9  UNL     1     -86.158  55.754   3.600  0.00  0.00    +0.002 C 
ATOM     21  C10 UNL     1     -84.666  55.724   3.965  0.00  0.00    +0.000 C 
ATOM     22  C11 UNL     1     -84.275  54.443   4.722  0.00  0.00    +0.000 C 
ATOM     23  C12 UNL     1     -84.445  54.517   6.251  0.00  0.00    +0.002 C 
ATOM     24  C13 UNL     1     -85.644  55.332   6.771  0.00  0.00    +0.024 C 
ENDBRANCH   9  18
ENDBRANCH   4   7
BRANCH   1  26
ATOM     25  C1  UNL     1     -90.964  48.014  11.032  0.00  0.00    +0.253 C 
ATOM     26  O1  UNL     1     -89.993  49.019  11.300  0.00  0.00    -0.468 OA
ENDBRANCH   1  26
BRANCH   6  27
ATOM     27  O3  UNL     1     -87.676  50.452  11.533  0.00  0.00    -0.472 OA
BRANCH  27  28
ATOM     28  C23 UNL     1     -86.368  50.085  11.099  0.00  0.00    +0.206 C 
BRANCH  28  29
ATOM     29  C24 UNL     1     -85.897  51.030   9.992  0.00  0.00    +0.051 C 
BRANCH  29  30
ATOM     30  C25 UNL     1     -84.364  51.059   9.900  0.00  0.00    +0.051 C 
BRANCH  30  31
ATOM     31  C26 UNL     1     -83.822  49.855   9.131  0.00  0.00    +0.206 C 
BRANCH  31  32
ATOM     32  O4  UNL     1     -82.464  50.076   8.755  0.00  0.00    -0.475 OA
BRANCH  32  33
ATOM     33  C27 UNL     1     -81.360  49.653   9.511  0.00  0.00    +0.139 A 
ATOM     34  C28 UNL     1     -81.110  50.127  10.813  0.00  0.00    +0.037 A 
ATOM     35  C29 UNL     1     -80.000  49.673  11.529  0.00  0.00    +0.006 A 
ATOM     36  C30 UNL     1     -79.118  48.732  10.967  0.00  0.00    +0.040 A 
ATOM     37  C32 UNL     1     -79.373  48.263   9.665  0.00  0.00    +0.006 A 
ATOM     38  C33 UNL     1     -80.480  48.725   8.946  0.00  0.00    +0.037 A 
BRANCH  36  39
ATOM     39  C31 UNL     1     -77.945  48.239  11.738  0.00  0.00    +0.208 A 
ATOM     40  N3  UNL     1     -77.388  47.014  11.614  0.00  0.00    -0.106 NA
ATOM     41  N4  UNL     1     -76.373  46.992  12.462  0.00  0.00    -0.021 NA
ATOM     42  N5  UNL     1     -76.298  48.151  13.092  0.00  0.00    -0.021 NA
ATOM     43  N6  UNL     1     -77.262  48.950  12.664  0.00  0.00    -0.106 NA
ENDBRANCH  36  39
ENDBRANCH  32  33
ENDBRANCH  31  32
ENDBRANCH  30  31
ENDBRANCH  29  30
ENDBRANCH  28  29
ENDBRANCH  27  28
ENDBRANCH   6  27
TORSDOF 11
ENDMDL
