MODEL 1
REMARK VINA RESULT:      -6.8      0.000      0.000
REMARK  Name = ./data/4wxx_site_bc02/pdb/l0c1.pdb
REMARK  11 active torsions:
REMARK  status: ('A' for Active; 'I' for Inactive)
REMARK    1  A    between atoms: O1_2  and  C2_3
REMARK    2  A    between atoms: C5_6  and  C6_7
REMARK    3  A    between atoms: N2_9  and  C7_10
REMARK    4  A    between atoms: C19_23  and  O3_24
REMARK    5  A    between atoms: O3_24  and  C20_25
REMARK    6  A    between atoms: C20_25  and  C21_26
REMARK    7  A    between atoms: C21_26  and  C22_27
REMARK    8  A    between atoms: C22_27  and  C23_28
REMARK    9  A    between atoms: C23_28  and  O4_29
REMARK   10  A    between atoms: O4_29  and  C24_30
REMARK   11  A    between atoms: C27_33  and  C28_34
REMARK                            x       y       z     vdW  Elec       q    Type
REMARK                         _______ _______ _______ _____ _____    ______ ____
ROOT
ATOM      1  C2  UNL     1     -44.499  33.211  -6.632  0.00  0.00    +0.172 A 
ATOM      2  C3  UNL     1     -43.909  34.419  -7.037  0.00  0.00    +0.040 A 
ATOM      3  C4  UNL     1     -42.590  34.445  -7.496  0.00  0.00    +0.005 A 
ATOM      4  C5  UNL     1     -41.825  33.266  -7.555  0.00  0.00    +0.019 A 
ATOM      5  C18 UNL     1     -42.436  32.054  -7.194  0.00  0.00    +0.041 A 
ATOM      6  C19 UNL     1     -43.762  32.020  -6.719  0.00  0.00    +0.172 A 
ENDROOT
BRANCH   4   7
ATOM      7  C6  UNL     1     -40.387  33.335  -7.935  0.00  0.00    +0.086 C 
ATOM      8  N1  UNL     1     -40.026  33.625  -9.146  0.00  0.00    -0.171 NA
ATOM      9  N2  UNL     1     -38.649  33.843  -9.191  0.00  0.00    -0.222 N 
ATOM     10  C14 UNL     1     -38.138  33.696  -8.012  0.00  0.00    +0.257 C 
ATOM     11  O2  UNL     1     -36.782  33.871  -7.742  0.00  0.00    -0.270 OA
ATOM     12  C15 UNL     1     -39.181  33.313  -7.002  0.00  0.00    +0.110 C 
ATOM     13  C16 UNL     1     -38.865  31.909  -6.454  0.00  0.00    +0.015 C 
ATOM     14  C17 UNL     1     -39.276  34.380  -5.895  0.00  0.00    +0.015 C 
BRANCH   9  15
ATOM     15  C7  UNL     1     -37.897  34.189 -10.407  0.00  0.00    +0.108 C 
ATOM     16  C8  UNL     1     -38.747  35.065 -11.369  0.00  0.00    +0.024 C 
ATOM     17  C9  UNL     1     -37.885  36.027 -12.203  0.00  0.00    +0.002 C 
ATOM     18  C10 UNL     1     -37.142  35.357 -13.362  0.00  0.00    +0.000 C 
ATOM     19  C11 UNL     1     -36.186  34.241 -12.909  0.00  0.00    +0.000 C 
ATOM     20  C12 UNL     1     -36.946  32.960 -12.533  0.00  0.00    +0.002 C 
ATOM     21  C13 UNL     1     -37.344  32.886 -11.049  0.00  0.00    +0.024 C 
ENDBRANCH   9  15
ENDBRANCH   4   7
BRANCH   1  23
ATOM     22  C1  UNL     1     -46.544  34.270  -5.651  0.00  0.00    +0.253 C 
ATOM     23  O1  UNL     1     -45.813  33.150  -6.136  0.00  0.00    -0.468 OA
ENDBRANCH   1  23
BRANCH   6  24
ATOM     24  O3  UNL     1     -44.388  30.822  -6.317  0.00  0.00    -0.472 OA
BRANCH  24  25
ATOM     25  C20 UNL     1     -43.932  29.959  -5.273  0.00  0.00    +0.206 C 
BRANCH  25  26
ATOM     26  C21 UNL     1     -43.558  30.769  -4.023  0.00  0.00    +0.051 C 
BRANCH  26  27
ATOM     27  C22 UNL     1     -44.755  30.879  -3.069  0.00  0.00    +0.051 C 
BRANCH  27  28
ATOM     28  C23 UNL     1     -44.303  31.184  -1.638  0.00  0.00    +0.206 C 
BRANCH  28  29
ATOM     29  O4  UNL     1     -44.405  32.582  -1.372  0.00  0.00    -0.475 OA
BRANCH  29  30
ATOM     30  C24 UNL     1     -43.559  33.578  -1.891  0.00  0.00    +0.139 A 
ATOM     31  C25 UNL     1     -42.558  34.209  -1.129  0.00  0.00    +0.037 A 
ATOM     32  C26 UNL     1     -41.730  35.176  -1.711  0.00  0.00    +0.006 A 
ATOM     33  C27 UNL     1     -41.889  35.540  -3.062  0.00  0.00    +0.040 A 
ATOM     34  C29 UNL     1     -42.903  34.916  -3.811  0.00  0.00    +0.006 A 
ATOM     35  C30 UNL     1     -43.724  33.944  -3.230  0.00  0.00    +0.037 A 
BRANCH  33  36
ATOM     36  C28 UNL     1     -40.995  36.557  -3.691  0.00  0.00    +0.208 A 
ATOM     37  N3  UNL     1     -41.354  37.408  -4.675  0.00  0.00    -0.106 NA
ATOM     38  N4  UNL     1     -40.276  38.127  -4.942  0.00  0.00    -0.021 NA
ATOM     39  N5  UNL     1     -39.282  37.744  -4.157  0.00  0.00    -0.021 NA
ATOM     40  N6  UNL     1     -39.699  36.767  -3.368  0.00  0.00    -0.106 NA
ENDBRANCH  33  36
ENDBRANCH  29  30
ENDBRANCH  28  29
ENDBRANCH  27  28
ENDBRANCH  26  27
ENDBRANCH  25  26
ENDBRANCH  24  25
ENDBRANCH   6  24
TORSDOF 11
ENDMDL
MODEL 2
REMARK VINA RESULT:      -6.7      3.043      4.568
REMARK  Name = ./data/4wxx_site_bc02/pdb/l0c1.pdb
REMARK  11 active torsions:
REMARK  status: ('A' for Active; 'I' for Inactive)
REMARK    1  A    between atoms: O1_2  and  C2_3
REMARK    2  A    between atoms: C5_6  and  C6_7
REMARK    3  A    between atoms: N2_9  and  C7_10
REMARK    4  A    between atoms: C19_23  and  O3_24
REMARK    5  A    between atoms: O3_24  and  C20_25
REMARK    6  A    between atoms: C20_25  and  C21_26
REMARK    7  A    between atoms: C21_26  and  C22_27
REMARK    8  A    between atoms: C22_27  and  C23_28
REMARK    9  A    between atoms: C23_28  and  O4_29
REMARK   10  A    between atoms: O4_29  and  C24_30
REMARK   11  A    between atoms: C27_33  and  C28_34
REMARK                            x       y       z     vdW  Elec       q    Type
REMARK                         _______ _______ _______ _____ _____    ______ ____
ROOT
ATOM      1  C2  UNL     1     -41.731  34.747  -5.373  0.00  0.00    +0.172 A 
ATOM      2  C3  UNL     1     -40.466  35.355  -5.419  0.00  0.00    +0.040 A 
ATOM      3  C4  UNL     1     -39.429  34.778  -6.156  0.00  0.00    +0.005 A 
ATOM      4  C5  UNL     1     -39.627  33.577  -6.858  0.00  0.00    +0.019 A 
ATOM      5  C18 UNL     1     -40.906  32.999  -6.848  0.00  0.00    +0.041 A 
ATOM      6  C19 UNL     1     -41.956  33.567  -6.099  0.00  0.00    +0.172 A 
ENDROOT
BRANCH   4   7
ATOM      7  C6  UNL     1     -38.477  32.920  -7.539  0.00  0.00    +0.086 C 
ATOM      8  N1  UNL     1     -37.910  33.459  -8.573  0.00  0.00    -0.171 NA
ATOM      9  N2  UNL     1     -36.736  32.773  -8.883  0.00  0.00    -0.222 N 
ATOM     10  C14 UNL     1     -36.556  31.802  -8.047  0.00  0.00    +0.257 C 
ATOM     11  O2  UNL     1     -35.454  30.951  -8.095  0.00  0.00    -0.270 OA
ATOM     12  C15 UNL     1     -37.674  31.718  -7.049  0.00  0.00    +0.110 C 
ATOM     13  C16 UNL     1     -38.415  30.381  -7.229  0.00  0.00    +0.015 C 
ATOM     14  C17 UNL     1     -37.136  31.916  -5.619  0.00  0.00    +0.015 C 
BRANCH   9  15
ATOM     15  C7  UNL     1     -35.841  33.110 -10.001  0.00  0.00    +0.108 C 
ATOM     16  C8  UNL     1     -34.621  33.943  -9.517  0.00  0.00    +0.024 C 
ATOM     17  C9  UNL     1     -33.367  33.697 -10.372  0.00  0.00    +0.002 C 
ATOM     18  C10 UNL     1     -33.390  34.398 -11.734  0.00  0.00    +0.000 C 
ATOM     19  C11 UNL     1     -34.576  33.974 -12.617  0.00  0.00    +0.000 C 
ATOM     20  C12 UNL     1     -35.889  34.624 -12.155  0.00  0.00    +0.002 C 
ATOM     21  C13 UNL     1     -36.670  33.787 -11.128  0.00  0.00    +0.024 C 
ENDBRANCH   9  15
ENDBRANCH   4   7
BRANCH   1  23
ATOM     22  C1  UNL     1     -42.789  35.400  -3.201  0.00  0.00    +0.253 C 
ATOM     23  O1  UNL     1     -42.791  35.280  -4.619  0.00  0.00    -0.468 OA
ENDBRANCH   1  23
BRANCH   6  24
ATOM     24  O3  UNL     1     -43.241  32.988  -6.042  0.00  0.00    -0.472 OA
BRANCH  24  25
ATOM     25  C20 UNL     1     -43.558  31.734  -5.435  0.00  0.00    +0.206 C 
BRANCH  25  26
ATOM     26  C21 UNL     1     -43.556  31.854  -3.904  0.00  0.00    +0.051 C 
BRANCH  26  27
ATOM     27  C22 UNL     1     -44.833  31.246  -3.310  0.00  0.00    +0.051 C 
BRANCH  27  28
ATOM     28  C23 UNL     1     -45.497  32.203  -2.316  0.00  0.00    +0.206 C 
BRANCH  28  29
ATOM     29  O4  UNL     1     -46.683  32.760  -2.881  0.00  0.00    -0.475 OA
BRANCH  29  30
ATOM     30  C24 UNL     1     -46.807  33.274  -4.183  0.00  0.00    +0.139 A 
ATOM     31  C25 UNL     1     -46.086  34.394  -4.639  0.00  0.00    +0.037 A 
ATOM     32  C26 UNL     1     -46.234  34.843  -5.956  0.00  0.00    +0.006 A 
ATOM     33  C27 UNL     1     -47.109  34.189  -6.845  0.00  0.00    +0.040 A 
ATOM     34  C29 UNL     1     -47.838  33.081  -6.375  0.00  0.00    +0.006 A 
ATOM     35  C30 UNL     1     -47.683  32.629  -5.061  0.00  0.00    +0.037 A 
BRANCH  33  36
ATOM     36  C28 UNL     1     -47.255  34.653  -8.256  0.00  0.00    +0.208 A 
ATOM     37  N3  UNL     1     -48.043  35.669  -8.665  0.00  0.00    -0.106 NA
ATOM     38  N4  UNL     1     -47.884  35.744  -9.976  0.00  0.00    -0.021 NA
ATOM     39  N5  UNL     1     -47.030  34.816 -10.373  0.00  0.00    -0.021 NA
ATOM     40  N6  UNL     1     -46.622  34.119  -9.325  0.00  0.00    -0.106 NA
ENDBRANCH  33  36
ENDBRANCH  29  30
ENDBRANCH  28  29
ENDBRANCH  27  28
ENDBRANCH  26  27
ENDBRANCH  25  26
ENDBRANCH  24  25
ENDBRANCH   6  24
TORSDOF 11
ENDMDL
MODEL 3
REMARK VINA RESULT:      -6.7      3.091      4.866
REMARK  Name = ./data/4wxx_site_bc02/pdb/l0c1.pdb
REMARK  11 active torsions:
REMARK  status: ('A' for Active; 'I' for Inactive)
REMARK    1  A    between atoms: O1_2  and  C2_3
REMARK    2  A    between atoms: C5_6  and  C6_7
REMARK    3  A    between atoms: N2_9  and  C7_10
REMARK    4  A    between atoms: C19_23  and  O3_24
REMARK    5  A    between atoms: O3_24  and  C20_25
REMARK    6  A    between atoms: C20_25  and  C21_26
REMARK    7  A    between atoms: C21_26  and  C22_27
REMARK    8  A    between atoms: C22_27  and  C23_28
REMARK    9  A    between atoms: C23_28  and  O4_29
REMARK   10  A    between atoms: O4_29  and  C24_30
REMARK   11  A    between atoms: C27_33  and  C28_34
REMARK                            x       y       z     vdW  Elec       q    Type
REMARK                         _______ _______ _______ _____ _____    ______ ____
ROOT
ATOM      1  C2  UNL     1     -43.619  33.116  -4.543  0.00  0.00    +0.172 A 
ATOM      2  C3  UNL     1     -42.828  34.138  -5.094  0.00  0.00    +0.040 A 
ATOM      3  C4  UNL     1     -42.200  33.959  -6.329  0.00  0.00    +0.005 A 
ATOM      4  C5  UNL     1     -42.341  32.754  -7.040  0.00  0.00    +0.019 A 
ATOM      5  C18 UNL     1     -43.171  31.756  -6.507  0.00  0.00    +0.041 A 
ATOM      6  C19 UNL     1     -43.800  31.922  -5.257  0.00  0.00    +0.172 A 
ENDROOT
BRANCH   4   7
ATOM      7  C6  UNL     1     -41.569  32.542  -8.296  0.00  0.00    +0.086 C 
ATOM      8  N1  UNL     1     -40.937  33.518  -8.869  0.00  0.00    -0.171 NA
ATOM      9  N2  UNL     1     -40.122  33.022  -9.887  0.00  0.00    -0.222 N 
ATOM     10  C14 UNL     1     -40.234  31.735  -9.958  0.00  0.00    +0.257 C 
ATOM     11  O2  UNL     1     -39.524  30.959 -10.871  0.00  0.00    -0.270 OA
ATOM     12  C15 UNL     1     -41.217  31.211  -8.953  0.00  0.00    +0.110 C 
ATOM     13  C16 UNL     1     -42.405  30.567  -9.692  0.00  0.00    +0.015 C 
ATOM     14  C17 UNL     1     -40.524  30.241  -7.977  0.00  0.00    +0.015 C 
BRANCH   9  15
ATOM     15  C7  UNL     1     -39.264  33.850 -10.749  0.00  0.00    +0.108 C 
ATOM     16  C8  UNL     1     -38.037  34.398  -9.968  0.00  0.00    +0.024 C 
ATOM     17  C9  UNL     1     -36.807  34.595 -10.870  0.00  0.00    +0.002 C 
ATOM     18  C10 UNL     1     -36.879  35.838 -11.763  0.00  0.00    +0.000 C 
ATOM     19  C11 UNL     1     -38.087  35.836 -12.714  0.00  0.00    +0.000 C 
ATOM     20  C12 UNL     1     -39.391  36.176 -11.977  0.00  0.00    +0.002 C 
ATOM     21  C13 UNL     1     -40.133  34.947 -11.426  0.00  0.00    +0.024 C 
ENDBRANCH   9  15
ENDBRANCH   4   7
BRANCH   1  23
ATOM     22  C1  UNL     1     -43.559  33.194  -2.041  0.00  0.00    +0.253 C 
ATOM     23  O1  UNL     1     -44.241  33.247  -3.289  0.00  0.00    -0.468 OA
ENDBRANCH   1  23
BRANCH   6  24
ATOM     24  O3  UNL     1     -44.610  30.922  -4.681  0.00  0.00    -0.472 OA
BRANCH  24  25
ATOM     25  C20 UNL     1     -44.171  29.941  -3.738  0.00  0.00    +0.206 C 
BRANCH  25  26
ATOM     26  C21 UNL     1     -45.114  29.890  -2.527  0.00  0.00    +0.051 C 
BRANCH  26  27
ATOM     27  C22 UNL     1     -46.580  29.890  -2.980  0.00  0.00    +0.051 C 
BRANCH  27  28
ATOM     28  C23 UNL     1     -47.299  31.170  -2.544  0.00  0.00    +0.206 C 
BRANCH  28  29
ATOM     29  O4  UNL     1     -48.334  31.498  -3.470  0.00  0.00    -0.475 OA
BRANCH  29  30
ATOM     30  C24 UNL     1     -48.154  32.146  -4.704  0.00  0.00    +0.139 A 
ATOM     31  C25 UNL     1     -48.772  31.718  -5.894  0.00  0.00    +0.037 A 
ATOM     32  C26 UNL     1     -48.573  32.422  -7.087  0.00  0.00    +0.006 A 
ATOM     33  C27 UNL     1     -47.748  33.563  -7.120  0.00  0.00    +0.040 A 
ATOM     34  C29 UNL     1     -47.122  33.973  -5.929  0.00  0.00    +0.006 A 
ATOM     35  C30 UNL     1     -47.328  33.273  -4.736  0.00  0.00    +0.037 A 
BRANCH  33  36
ATOM     36  C28 UNL     1     -47.549  34.328  -8.386  0.00  0.00    +0.208 A 
ATOM     37  N3  UNL     1     -46.794  33.924  -9.430  0.00  0.00    -0.106 NA
ATOM     38  N4  UNL     1     -46.884  34.887 -10.334  0.00  0.00    -0.021 NA
ATOM     39  N5  UNL     1     -47.664  35.853  -9.877  0.00  0.00    -0.021 NA
ATOM     40  N6  UNL     1     -48.091  35.535  -8.666  0.00  0.00    -0.106 NA
ENDBRANCH  33  36
ENDBRANCH  29  30
ENDBRANCH  28  29
ENDBRANCH  27  28
ENDBRANCH  26  27
ENDBRANCH  25  26
ENDBRANCH  24  25
ENDBRANCH   6  24
TORSDOF 11
ENDMDL
MODEL 4
REMARK VINA RESULT:      -5.5      3.331      6.088
REMARK  Name = ./data/4wxx_site_bc02/pdb/l0c1.pdb
REMARK  11 active torsions:
REMARK  status: ('A' for Active; 'I' for Inactive)
REMARK    1  A    between atoms: O1_2  and  C2_3
REMARK    2  A    between atoms: C5_6  and  C6_7
REMARK    3  A    between atoms: N2_9  and  C7_10
REMARK    4  A    between atoms: C19_23  and  O3_24
REMARK    5  A    between atoms: O3_24  and  C20_25
REMARK    6  A    between atoms: C20_25  and  C21_26
REMARK    7  A    between atoms: C21_26  and  C22_27
REMARK    8  A    between atoms: C22_27  and  C23_28
REMARK    9  A    between atoms: C23_28  and  O4_29
REMARK   10  A    between atoms: O4_29  and  C24_30
REMARK   11  A    between atoms: C27_33  and  C28_34
REMARK                            x       y       z     vdW  Elec       q    Type
REMARK                         _______ _______ _______ _____ _____    ______ ____
ROOT
ATOM      1  C2  UNL     1     -43.135  33.883  -1.635  0.00  0.00    +0.172 A 
ATOM      2  C3  UNL     1     -42.556  34.814  -2.513  0.00  0.00    +0.040 A 
ATOM      3  C4  UNL     1     -42.500  34.553  -3.884  0.00  0.00    +0.005 A 
ATOM      4  C5  UNL     1     -43.013  33.355  -4.411  0.00  0.00    +0.019 A 
ATOM      5  C18 UNL     1     -43.634  32.451  -3.534  0.00  0.00    +0.041 A 
ATOM      6  C19 UNL     1     -43.686  32.699  -2.148  0.00  0.00    +0.172 A 
ENDROOT
BRANCH   4   7
ATOM      7  C6  UNL     1     -42.838  33.047  -5.858  0.00  0.00    +0.086 C 
ATOM      8  N1  UNL     1     -41.658  32.964  -6.388  0.00  0.00    -0.171 NA
ATOM      9  N2  UNL     1     -41.755  32.453  -7.683  0.00  0.00    -0.222 N 
ATOM     10  C14 UNL     1     -42.992  32.209  -7.972  0.00  0.00    +0.257 C 
ATOM     11  O2  UNL     1     -43.397  31.672  -9.192  0.00  0.00    -0.270 OA
ATOM     12  C15 UNL     1     -43.907  32.582  -6.841  0.00  0.00    +0.110 C 
ATOM     13  C16 UNL     1     -44.843  33.715  -7.300  0.00  0.00    +0.015 C 
ATOM     14  C17 UNL     1     -44.670  31.343  -6.335  0.00  0.00    +0.015 C 
BRANCH   9  15
ATOM     15  C7  UNL     1     -40.611  32.229  -8.580  0.00  0.00    +0.108 C 
ATOM     16  C8  UNL     1     -39.369  31.718  -7.798  0.00  0.00    +0.024 C 
ATOM     17  C9  UNL     1     -38.473  30.804  -8.650  0.00  0.00    +0.002 C 
ATOM     18  C10 UNL     1     -37.607  31.551  -9.670  0.00  0.00    +0.000 C 
ATOM     19  C11 UNL     1     -38.427  32.375 -10.677  0.00  0.00    +0.000 C 
ATOM     20  C12 UNL     1     -38.966  33.668 -10.048  0.00  0.00    +0.002 C 
ATOM     21  C13 UNL     1     -40.358  33.517  -9.411  0.00  0.00    +0.024 C 
ENDBRANCH   9  15
ENDBRANCH   4   7
BRANCH   1  23
ATOM     22  C1  UNL     1     -42.381  35.041   0.453  0.00  0.00    +0.253 C 
ATOM     23  O1  UNL     1     -43.183  34.096  -0.246  0.00  0.00    -0.468 OA
ENDBRANCH   1  23
BRANCH   6  24
ATOM     24  O3  UNL     1     -44.271  31.792  -1.241  0.00  0.00    -0.472 OA
BRANCH  24  25
ATOM     25  C20 UNL     1     -45.084  30.672  -1.598  0.00  0.00    +0.206 C 
BRANCH  25  26
ATOM     26  C21 UNL     1     -46.446  31.137  -2.133  0.00  0.00    +0.051 C 
BRANCH  26  27
ATOM     27  C22 UNL     1     -47.123  30.020  -2.938  0.00  0.00    +0.051 C 
BRANCH  27  28
ATOM     28  C23 UNL     1     -48.637  30.231  -3.022  0.00  0.00    +0.206 C 
BRANCH  28  29
ATOM     29  O4  UNL     1     -49.077  30.139  -4.376  0.00  0.00    -0.475 OA
BRANCH  29  30
ATOM     30  C24 UNL     1     -48.786  31.061  -5.396  0.00  0.00    +0.139 A 
ATOM     31  C25 UNL     1     -48.390  30.676  -6.691  0.00  0.00    +0.037 A 
ATOM     32  C26 UNL     1     -48.138  31.643  -7.671  0.00  0.00    +0.006 A 
ATOM     33  C27 UNL     1     -48.268  33.015  -7.379  0.00  0.00    +0.040 A 
ATOM     34  C29 UNL     1     -48.649  33.390  -6.077  0.00  0.00    +0.006 A 
ATOM     35  C30 UNL     1     -48.907  32.423  -5.101  0.00  0.00    +0.037 A 
BRANCH  33  36
ATOM     36  C28 UNL     1     -48.019  34.047  -8.427  0.00  0.00    +0.208 A 
ATOM     37  N3  UNL     1     -48.268  35.368  -8.296  0.00  0.00    -0.106 NA
ATOM     38  N4  UNL     1     -47.914  35.918  -9.445  0.00  0.00    -0.021 NA
ATOM     39  N5  UNL     1     -47.459  34.983 -10.263  0.00  0.00    -0.021 NA
ATOM     40  N6  UNL     1     -47.515  33.808  -9.658  0.00  0.00    -0.106 NA
ENDBRANCH  33  36
ENDBRANCH  29  30
ENDBRANCH  28  29
ENDBRANCH  27  28
ENDBRANCH  26  27
ENDBRANCH  25  26
ENDBRANCH  24  25
ENDBRANCH   6  24
TORSDOF 11
ENDMDL
MODEL 5
REMARK VINA RESULT:      -5.5      1.837      3.250
REMARK  Name = ./data/4wxx_site_bc02/pdb/l0c1.pdb
REMARK  11 active torsions:
REMARK  status: ('A' for Active; 'I' for Inactive)
REMARK    1  A    between atoms: O1_2  and  C2_3
REMARK    2  A    between atoms: C5_6  and  C6_7
REMARK    3  A    between atoms: N2_9  and  C7_10
REMARK    4  A    between atoms: C19_23  and  O3_24
REMARK    5  A    between atoms: O3_24  and  C20_25
REMARK    6  A    between atoms: C20_25  and  C21_26
REMARK    7  A    between atoms: C21_26  and  C22_27
REMARK    8  A    between atoms: C22_27  and  C23_28
REMARK    9  A    between atoms: C23_28  and  O4_29
REMARK   10  A    between atoms: O4_29  and  C24_30
REMARK   11  A    between atoms: C27_33  and  C28_34
REMARK                            x       y       z     vdW  Elec       q    Type
REMARK                         _______ _______ _______ _____ _____    ______ ____
ROOT
ATOM      1  C2  UNL     1     -44.650  33.224  -6.311  0.00  0.00    +0.172 A 
ATOM      2  C3  UNL     1     -43.966  34.375  -6.735  0.00  0.00    +0.040 A 
ATOM      3  C4  UNL     1     -42.692  34.274  -7.299  0.00  0.00    +0.005 A 
ATOM      4  C5  UNL     1     -42.066  33.024  -7.446  0.00  0.00    +0.019 A 
ATOM      5  C18 UNL     1     -42.775  31.873  -7.065  0.00  0.00    +0.041 A 
ATOM      6  C19 UNL     1     -44.055  31.964  -6.485  0.00  0.00    +0.172 A 
ENDROOT
BRANCH   4   7
ATOM      7  C6  UNL     1     -40.663  32.952  -7.941  0.00  0.00    +0.086 C 
ATOM      8  N1  UNL     1     -39.672  32.771  -7.125  0.00  0.00    -0.171 NA
ATOM      9  N2  UNL     1     -38.504  32.520  -7.846  0.00  0.00    -0.222 N 
ATOM     10  C14 UNL     1     -38.754  32.536  -9.115  0.00  0.00    +0.257 C 
ATOM     11  O2  UNL     1     -37.783  32.298 -10.085  0.00  0.00    -0.270 OA
ATOM     12  C15 UNL     1     -40.197  32.849  -9.389  0.00  0.00    +0.110 C 
ATOM     13  C16 UNL     1     -40.290  34.182 -10.152  0.00  0.00    +0.015 C 
ATOM     14  C17 UNL     1     -40.867  31.682 -10.140  0.00  0.00    +0.015 C 
BRANCH   9  15
ATOM     15  C7  UNL     1     -37.186  32.273  -7.241  0.00  0.00    +0.108 C 
ATOM     16  C8  UNL     1     -37.321  31.671  -5.814  0.00  0.00    +0.024 C 
ATOM     17  C9  UNL     1     -36.146  30.747  -5.453  0.00  0.00    +0.002 C 
ATOM     18  C10 UNL     1     -34.855  31.489  -5.092  0.00  0.00    +0.000 C 
ATOM     19  C11 UNL     1     -34.333  32.391  -6.222  0.00  0.00    +0.000 C 
ATOM     20  C12 UNL     1     -35.153  33.684  -6.341  0.00  0.00    +0.002 C 
ATOM     21  C13 UNL     1     -36.346  33.578  -7.307  0.00  0.00    +0.024 C 
ENDBRANCH   9  15
ENDBRANCH   4   7
BRANCH   1  23
ATOM     22  C1  UNL     1     -47.039  33.969  -6.266  0.00  0.00    +0.253 C 
ATOM     23  O1  UNL     1     -45.920  33.286  -5.712  0.00  0.00    -0.468 OA
ENDBRANCH   1  23
BRANCH   6  24
ATOM     24  O3  UNL     1     -44.774  30.828  -6.060  0.00  0.00    -0.472 OA
BRANCH  24  25
ATOM     25  C20 UNL     1     -44.514  30.080  -4.870  0.00  0.00    +0.206 C 
BRANCH  25  26
ATOM     26  C21 UNL     1     -43.885  30.976  -3.792  0.00  0.00    +0.051 C 
BRANCH  26  27
ATOM     27  C22 UNL     1     -44.926  31.366  -2.736  0.00  0.00    +0.051 C 
BRANCH  27  28
ATOM     28  C23 UNL     1     -44.286  31.534  -1.355  0.00  0.00    +0.206 C 
BRANCH  28  29
ATOM     29  O4  UNL     1     -44.166  32.919  -1.028  0.00  0.00    -0.475 OA
BRANCH  29  30
ATOM     30  C24 UNL     1     -43.271  33.825  -1.622  0.00  0.00    +0.139 A 
ATOM     31  C25 UNL     1     -42.204  34.421  -0.923  0.00  0.00    +0.037 A 
ATOM     32  C26 UNL     1     -41.331  35.298  -1.578  0.00  0.00    +0.006 A 
ATOM     33  C27 UNL     1     -41.508  35.605  -2.941  0.00  0.00    +0.040 A 
ATOM     34  C29 UNL     1     -42.587  35.016  -3.627  0.00  0.00    +0.006 A 
ATOM     35  C30 UNL     1     -43.454  34.135  -2.973  0.00  0.00    +0.037 A 
BRANCH  33  36
ATOM     36  C28 UNL     1     -40.568  36.523  -3.647  0.00  0.00    +0.208 A 
ATOM     37  N3  UNL     1     -39.687  36.155  -4.601  0.00  0.00    -0.106 NA
ATOM     38  N4  UNL     1     -39.053  37.262  -4.953  0.00  0.00    -0.021 NA
ATOM     39  N5  UNL     1     -39.519  38.283  -4.252  0.00  0.00    -0.021 NA
ATOM     40  N6  UNL     1     -40.461  37.854  -3.429  0.00  0.00    -0.106 NA
ENDBRANCH  33  36
ENDBRANCH  29  30
ENDBRANCH  28  29
ENDBRANCH  27  28
ENDBRANCH  26  27
ENDBRANCH  25  26
ENDBRANCH  24  25
ENDBRANCH   6  24
TORSDOF 11
ENDMDL
