MODEL 1
REMARK VINA RESULT:      -6.0      0.000      0.000
REMARK  Name = ./data/4wxx_site_bc02/pdb/l1c0.pdb
REMARK  11 active torsions:
REMARK  status: ('A' for Active; 'I' for Inactive)
REMARK    1  A    between atoms: O1_2  and  C2_3
REMARK    2  A    between atoms: C5_6  and  C6_7
REMARK    3  A    between atoms: N2_9  and  C7_10
REMARK    4  A    between atoms: C22_26  and  O3_27
REMARK    5  A    between atoms: O3_27  and  C23_28
REMARK    6  A    between atoms: C23_28  and  C24_29
REMARK    7  A    between atoms: C24_29  and  C25_30
REMARK    8  A    between atoms: C25_30  and  C26_31
REMARK    9  A    between atoms: C26_31  and  O4_32
REMARK   10  A    between atoms: O4_32  and  C27_33
REMARK   11  A    between atoms: C30_36  and  C31_37
REMARK                            x       y       z     vdW  Elec       q    Type
REMARK                         _______ _______ _______ _____ _____    ______ ____
ROOT
ATOM      1  C2  UNL     1     -72.882  60.224 -11.345  0.00  0.00    +0.172 A 
ATOM      2  C3  UNL     1     -72.236  59.010 -11.630  0.00  0.00    +0.040 A 
ATOM      3  C4  UNL     1     -70.947  59.004 -12.164  0.00  0.00    +0.005 A 
ATOM      4  C5  UNL     1     -70.265  60.206 -12.421  0.00  0.00    +0.018 A 
ATOM      5  C21 UNL     1     -70.912  61.420 -12.120  0.00  0.00    +0.041 A 
ATOM      6  C22 UNL     1     -72.225  61.436 -11.604  0.00  0.00    +0.172 A 
ENDROOT
BRANCH   4   7
ATOM      7  C6  UNL     1     -68.884  60.169 -12.994  0.00  0.00    +0.079 C 
ATOM      8  N1  UNL     1     -68.718  59.682 -14.188  0.00  0.00    -0.172 NA
ATOM      9  N2  UNL     1     -67.471  59.591 -14.840  0.00  0.00    -0.222 N 
ATOM     10  C14 UNL     1     -66.424  60.243 -14.386  0.00  0.00    +0.253 C 
ATOM     11  O2  UNL     1     -65.226  60.216 -15.107  0.00  0.00    -0.271 OA
ATOM     12  C15 UNL     1     -66.538  61.095 -13.127  0.00  0.00    +0.091 C 
ATOM     13  C16 UNL     1     -65.226  61.169 -12.321  0.00  0.00    +0.035 C 
ATOM     14  C17 UNL     1     -64.843  59.796 -11.858  0.00  0.00    -0.030 C 
ATOM     15  C18 UNL     1     -65.785  58.965 -11.394  0.00  0.00    -0.030 C 
ATOM     16  C19 UNL     1     -67.224  59.402 -11.246  0.00  0.00    +0.032 C 
ATOM     17  C20 UNL     1     -67.664  60.570 -12.191  0.00  0.00    +0.056 C 
BRANCH   9  18
ATOM     18  C7  UNL     1     -67.436  58.796 -16.086  0.00  0.00    +0.108 C 
ATOM     19  C8  UNL     1     -67.076  57.314 -15.793  0.00  0.00    +0.024 C 
ATOM     20  C9  UNL     1     -66.299  56.657 -16.945  0.00  0.00    +0.002 C 
ATOM     21  C10 UNL     1     -67.185  56.247 -18.126  0.00  0.00    +0.000 C 
ATOM     22  C11 UNL     1     -67.930  57.423 -18.771  0.00  0.00    +0.000 C 
ATOM     23  C12 UNL     1     -69.105  57.910 -17.907  0.00  0.00    +0.002 C 
ATOM     24  C13 UNL     1     -68.731  59.021 -16.913  0.00  0.00    +0.024 C 
ENDBRANCH   9  18
ENDBRANCH   4   7
BRANCH   1  26
ATOM     25  C1  UNL     1     -74.963  59.123 -10.501  0.00  0.00    +0.253 C 
ATOM     26  O1  UNL     1     -74.178  60.271 -10.807  0.00  0.00    -0.468 OA
ENDBRANCH   1  26
BRANCH   6  27
ATOM     27  O3  UNL     1     -72.914  62.630 -11.330  0.00  0.00    -0.472 OA
BRANCH  27  28
ATOM     28  C23 UNL     1     -72.570  63.924 -11.824  0.00  0.00    +0.206 C 
BRANCH  28  29
ATOM     29  C24 UNL     1     -73.601  64.401 -12.851  0.00  0.00    +0.051 C 
BRANCH  29  30
ATOM     30  C25 UNL     1     -73.651  63.467 -14.065  0.00  0.00    +0.051 C 
BRANCH  30  31
ATOM     31  C26 UNL     1     -74.453  62.201 -13.764  0.00  0.00    +0.206 C 
BRANCH  31  32
ATOM     32  O4  UNL     1     -75.837  62.533 -13.656  0.00  0.00    -0.475 OA
BRANCH  32  33
ATOM     33  C27 UNL     1     -76.682  62.111 -12.621  0.00  0.00    +0.139 A 
ATOM     34  C28 UNL     1     -76.324  62.428 -11.309  0.00  0.00    +0.037 A 
ATOM     35  C29 UNL     1     -77.109  62.006 -10.234  0.00  0.00    +0.006 A 
ATOM     36  C30 UNL     1     -78.288  61.267 -10.455  0.00  0.00    +0.040 A 
ATOM     37  C32 UNL     1     -78.661  60.970 -11.781  0.00  0.00    +0.006 A 
ATOM     38  C33 UNL     1     -77.862  61.382 -12.854  0.00  0.00    +0.037 A 
BRANCH  36  39
ATOM     39  C31 UNL     1     -79.117  60.806  -9.311  0.00  0.00    +0.208 A 
ATOM     40  N3  UNL     1     -79.679  61.606  -8.380  0.00  0.00    -0.106 NA
ATOM     41  N4  UNL     1     -80.342  60.801  -7.568  0.00  0.00    -0.021 NA
ATOM     42  N5  UNL     1     -80.198  59.550  -7.969  0.00  0.00    -0.021 NA
ATOM     43  N6  UNL     1     -79.444  59.520  -9.053  0.00  0.00    -0.106 NA
ENDBRANCH  36  39
ENDBRANCH  32  33
ENDBRANCH  31  32
ENDBRANCH  30  31
ENDBRANCH  29  30
ENDBRANCH  28  29
ENDBRANCH  27  28
ENDBRANCH   6  27
TORSDOF 11
ENDMDL
MODEL 2
REMARK VINA RESULT:      -5.6      1.781      2.627
REMARK  Name = ./data/4wxx_site_bc02/pdb/l1c0.pdb
REMARK  11 active torsions:
REMARK  status: ('A' for Active; 'I' for Inactive)
REMARK    1  A    between atoms: O1_2  and  C2_3
REMARK    2  A    between atoms: C5_6  and  C6_7
REMARK    3  A    between atoms: N2_9  and  C7_10
REMARK    4  A    between atoms: C22_26  and  O3_27
REMARK    5  A    between atoms: O3_27  and  C23_28
REMARK    6  A    between atoms: C23_28  and  C24_29
REMARK    7  A    between atoms: C24_29  and  C25_30
REMARK    8  A    between atoms: C25_30  and  C26_31
REMARK    9  A    between atoms: C26_31  and  O4_32
REMARK   10  A    between atoms: O4_32  and  C27_33
REMARK   11  A    between atoms: C30_36  and  C31_37
REMARK                            x       y       z     vdW  Elec       q    Type
REMARK                         _______ _______ _______ _____ _____    ______ ____
ROOT
ATOM      1  C2  UNL     1     -72.699  60.151 -11.399  0.00  0.00    +0.172 A 
ATOM      2  C3  UNL     1     -71.931  58.996 -11.616  0.00  0.00    +0.040 A 
ATOM      3  C4  UNL     1     -70.630  59.094 -12.110  0.00  0.00    +0.005 A 
ATOM      4  C5  UNL     1     -70.057  60.346 -12.394  0.00  0.00    +0.018 A 
ATOM      5  C21 UNL     1     -70.826  61.502 -12.161  0.00  0.00    +0.041 A 
ATOM      6  C22 UNL     1     -72.151  61.410 -11.685  0.00  0.00    +0.172 A 
ENDROOT
BRANCH   4   7
ATOM      7  C6  UNL     1     -68.660  60.421 -12.923  0.00  0.00    +0.079 C 
ATOM      8  N1  UNL     1     -68.450  61.051 -14.041  0.00  0.00    -0.172 NA
ATOM      9  N2  UNL     1     -67.184  61.194 -14.645  0.00  0.00    -0.222 N 
ATOM     10  C14 UNL     1     -66.085  60.925 -13.977  0.00  0.00    +0.253 C 
ATOM     11  O2  UNL     1     -64.840  61.171 -14.566  0.00  0.00    -0.271 OA
ATOM     12  C15 UNL     1     -66.165  60.433 -12.537  0.00  0.00    +0.091 C 
ATOM     13  C16 UNL     1     -65.002  59.497 -12.148  0.00  0.00    +0.035 C 
ATOM     14  C17 UNL     1     -65.038  58.270 -13.007  0.00  0.00    -0.030 C 
ATOM     15  C18 UNL     1     -66.210  57.685 -13.284  0.00  0.00    -0.030 C 
ATOM     16  C19 UNL     1     -67.504  58.184 -12.683  0.00  0.00    +0.032 C 
ATOM     17  C20 UNL     1     -67.506  59.693 -12.267  0.00  0.00    +0.056 C 
BRANCH   9  18
ATOM     18  C7  UNL     1     -67.169  61.728 -16.024  0.00  0.00    +0.108 C 
ATOM     19  C8  UNL     1     -68.248  62.828 -16.209  0.00  0.00    +0.024 C 
ATOM     20  C9  UNL     1     -68.809  62.870 -17.639  0.00  0.00    +0.002 C 
ATOM     21  C10 UNL     1     -67.880  63.562 -18.641  0.00  0.00    +0.000 C 
ATOM     22  C11 UNL     1     -66.509  62.886 -18.774  0.00  0.00    +0.000 C 
ATOM     23  C12 UNL     1     -65.604  63.167 -17.562  0.00  0.00    +0.002 C 
ATOM     24  C13 UNL     1     -65.726  62.127 -16.437  0.00  0.00    +0.024 C 
ENDBRANCH   9  18
ENDBRANCH   4   7
BRANCH   1  26
ATOM     25  C1  UNL     1     -74.914  59.019 -11.143  0.00  0.00    +0.253 C 
ATOM     26  O1  UNL     1     -74.010  60.093 -10.902  0.00  0.00    -0.468 OA
ENDBRANCH   1  26
BRANCH   6  27
ATOM     27  O3  UNL     1     -72.959  62.541 -11.480  0.00  0.00    -0.472 OA
BRANCH  27  28
ATOM     28  C23 UNL     1     -72.748  63.832 -12.050  0.00  0.00    +0.206 C 
BRANCH  28  29
ATOM     29  C24 UNL     1     -73.441  63.940 -13.411  0.00  0.00    +0.051 C 
BRANCH  29  30
ATOM     30  C25 UNL     1     -73.525  62.574 -14.103  0.00  0.00    +0.051 C 
BRANCH  30  31
ATOM     31  C26 UNL     1     -74.898  61.933 -13.906  0.00  0.00    +0.206 C 
BRANCH  31  32
ATOM     32  O4  UNL     1     -75.689  62.760 -13.054  0.00  0.00    -0.475 OA
BRANCH  32  33
ATOM     33  C27 UNL     1     -76.528  62.288 -12.036  0.00  0.00    +0.139 A 
ATOM     34  C28 UNL     1     -77.766  61.752 -12.399  0.00  0.00    +0.037 A 
ATOM     35  C29 UNL     1     -78.658  61.297 -11.426  0.00  0.00    +0.006 A 
ATOM     36  C30 UNL     1     -78.318  61.353 -10.061  0.00  0.00    +0.040 A 
ATOM     37  C32 UNL     1     -77.058  61.869  -9.698  0.00  0.00    +0.006 A 
ATOM     38  C33 UNL     1     -76.174  62.338 -10.676  0.00  0.00    +0.037 A 
BRANCH  36  39
ATOM     39  C31 UNL     1     -79.273  60.881  -9.024  0.00  0.00    +0.208 A 
ATOM     40  N3  UNL     1     -79.718  59.613  -8.889  0.00  0.00    -0.106 NA
ATOM     41  N4  UNL     1     -80.523  59.624  -7.841  0.00  0.00    -0.021 NA
ATOM     42  N5  UNL     1     -80.583  60.847  -7.342  0.00  0.00    -0.021 NA
ATOM     43  N6  UNL     1     -79.815  61.651  -8.054  0.00  0.00    -0.106 NA
ENDBRANCH  36  39
ENDBRANCH  32  33
ENDBRANCH  31  32
ENDBRANCH  30  31
ENDBRANCH  29  30
ENDBRANCH  28  29
ENDBRANCH  27  28
ENDBRANCH   6  27
TORSDOF 11
ENDMDL
