MODEL 1
REMARK VINA RESULT:      -7.2      0.000      0.000
REMARK  Name = ./data/4wxx_site_bc02/pdb/l0c0.pdb
REMARK  11 active torsions:
REMARK  status: ('A' for Active; 'I' for Inactive)
REMARK    1  A    between atoms: O1_2  and  C2_3
REMARK    2  A    between atoms: C5_6  and  C6_7
REMARK    3  A    between atoms: N2_9  and  C7_10
REMARK    4  A    between atoms: C19_23  and  O3_24
REMARK    5  A    between atoms: O3_24  and  C20_25
REMARK    6  A    between atoms: C20_25  and  C21_26
REMARK    7  A    between atoms: C21_26  and  C22_27
REMARK    8  A    between atoms: C22_27  and  C23_28
REMARK    9  A    between atoms: C23_28  and  O4_29
REMARK   10  A    between atoms: O4_29  and  C24_30
REMARK   11  A    between atoms: C27_33  and  C28_34
REMARK                            x       y       z     vdW  Elec       q    Type
REMARK                         _______ _______ _______ _____ _____    ______ ____
ROOT
ATOM      1  C2  UNL     1     -42.802  33.769  -5.120  0.00  0.00    +0.172 A 
ATOM      2  C3  UNL     1     -41.838  34.611  -5.704  0.00  0.00    +0.040 A 
ATOM      3  C4  UNL     1     -41.222  34.261  -6.908  0.00  0.00    +0.005 A 
ATOM      4  C5  UNL     1     -41.552  33.060  -7.557  0.00  0.00    +0.019 A 
ATOM      5  C18 UNL     1     -42.499  32.210  -6.954  0.00  0.00    +0.041 A 
ATOM      6  C19 UNL     1     -43.142  32.566  -5.753  0.00  0.00    +0.172 A 
ENDROOT
BRANCH   4   7
ATOM      7  C6  UNL     1     -40.962  32.662  -8.869  0.00  0.00    +0.086 C 
ATOM      8  N1  UNL     1     -40.586  33.559  -9.724  0.00  0.00    -0.171 NA
ATOM      9  N2  UNL     1     -40.035  32.954 -10.851  0.00  0.00    -0.222 N 
ATOM     10  C14 UNL     1     -40.063  31.669 -10.721  0.00  0.00    +0.257 C 
ATOM     11  O2  UNL     1     -39.585  30.791 -11.692  0.00  0.00    -0.270 OA
ATOM     12  C15 UNL     1     -40.661  31.267  -9.400  0.00  0.00    +0.110 C 
ATOM     13  C16 UNL     1     -41.931  30.435  -9.632  0.00  0.00    +0.015 C 
ATOM     14  C17 UNL     1     -39.604  30.527  -8.561  0.00  0.00    +0.015 C 
BRANCH   9  15
ATOM     15  C7  UNL     1     -39.486  33.715 -11.981  0.00  0.00    +0.108 C 
ATOM     16  C8  UNL     1     -40.237  35.059 -12.105  0.00  0.00    +0.024 C 
ATOM     17  C9  UNL     1     -39.544  36.083 -13.021  0.00  0.00    +0.002 C 
ATOM     18  C10 UNL     1     -38.563  36.980 -12.250  0.00  0.00    +0.000 C 
ATOM     19  C11 UNL     1     -37.251  36.282 -11.869  0.00  0.00    +0.000 C 
ATOM     20  C12 UNL     1     -37.449  35.024 -11.010  0.00  0.00    +0.002 C 
ATOM     21  C13 UNL     1     -37.947  33.824 -11.838  0.00  0.00    +0.024 C 
ENDBRANCH   9  15
ENDBRANCH   4   7
BRANCH   1  23
ATOM     22  C1  UNL     1     -43.055  35.160  -3.054  0.00  0.00    +0.253 C 
ATOM     23  O1  UNL     1     -43.443  34.092  -3.913  0.00  0.00    -0.468 OA
ENDBRANCH   1  23
BRANCH   6  24
ATOM     24  O3  UNL     1     -44.125  31.753  -5.160  0.00  0.00    -0.472 OA
BRANCH  24  25
ATOM     25  C20 UNL     1     -43.884  30.501  -4.514  0.00  0.00    +0.206 C 
BRANCH  25  26
ATOM     26  C21 UNL     1     -43.963  30.644  -2.987  0.00  0.00    +0.051 C 
BRANCH  26  27
ATOM     27  C22 UNL     1     -45.380  30.345  -2.484  0.00  0.00    +0.051 C 
BRANCH  27  28
ATOM     28  C23 UNL     1     -46.097  31.629  -2.056  0.00  0.00    +0.206 C 
BRANCH  28  29
ATOM     29  O4  UNL     1     -47.271  31.831  -2.844  0.00  0.00    -0.475 OA
BRANCH  29  30
ATOM     30  C24 UNL     1     -47.306  32.449  -4.105  0.00  0.00    +0.139 A 
ATOM     31  C25 UNL     1     -47.948  31.874  -5.219  0.00  0.00    +0.037 A 
ATOM     32  C26 UNL     1     -47.950  32.533  -6.452  0.00  0.00    +0.006 A 
ATOM     33  C27 UNL     1     -47.317  33.779  -6.598  0.00  0.00    +0.040 A 
ATOM     34  C29 UNL     1     -46.682  34.352  -5.483  0.00  0.00    +0.006 A 
ATOM     35  C30 UNL     1     -46.679  33.691  -4.250  0.00  0.00    +0.037 A 
BRANCH  33  36
ATOM     36  C28 UNL     1     -47.321  34.478  -7.907  0.00  0.00    +0.208 A 
ATOM     37  N3  UNL     1     -48.139  35.501  -8.243  0.00  0.00    -0.106 NA
ATOM     38  N4  UNL     1     -47.821  35.819  -9.488  0.00  0.00    -0.021 NA
ATOM     39  N5  UNL     1     -46.846  35.033  -9.910  0.00  0.00    -0.021 NA
ATOM     40  N6  UNL     1     -46.513  34.187  -8.950  0.00  0.00    -0.106 NA
ENDBRANCH  33  36
ENDBRANCH  29  30
ENDBRANCH  28  29
ENDBRANCH  27  28
ENDBRANCH  26  27
ENDBRANCH  25  26
ENDBRANCH  24  25
ENDBRANCH   6  24
TORSDOF 11
ENDMDL
MODEL 2
REMARK VINA RESULT:      -6.8      2.365      3.160
REMARK  Name = ./data/4wxx_site_bc02/pdb/l0c0.pdb
REMARK  11 active torsions:
REMARK  status: ('A' for Active; 'I' for Inactive)
REMARK    1  A    between atoms: O1_2  and  C2_3
REMARK    2  A    between atoms: C5_6  and  C6_7
REMARK    3  A    between atoms: N2_9  and  C7_10
REMARK    4  A    between atoms: C19_23  and  O3_24
REMARK    5  A    between atoms: O3_24  and  C20_25
REMARK    6  A    between atoms: C20_25  and  C21_26
REMARK    7  A    between atoms: C21_26  and  C22_27
REMARK    8  A    between atoms: C22_27  and  C23_28
REMARK    9  A    between atoms: C23_28  and  O4_29
REMARK   10  A    between atoms: O4_29  and  C24_30
REMARK   11  A    between atoms: C27_33  and  C28_34
REMARK                            x       y       z     vdW  Elec       q    Type
REMARK                         _______ _______ _______ _____ _____    ______ ____
ROOT
ATOM      1  C2  UNL     1     -41.132  35.373  -5.168  0.00  0.00    +0.172 A 
ATOM      2  C3  UNL     1     -39.825  35.829  -4.915  0.00  0.00    +0.040 A 
ATOM      3  C4  UNL     1     -38.728  35.224  -5.533  0.00  0.00    +0.005 A 
ATOM      4  C5  UNL     1     -38.909  34.146  -6.416  0.00  0.00    +0.019 A 
ATOM      5  C18 UNL     1     -40.217  33.679  -6.644  0.00  0.00    +0.041 A 
ATOM      6  C19 UNL     1     -41.330  34.298  -6.045  0.00  0.00    +0.172 A 
ENDROOT
BRANCH   4   7
ATOM      7  C6  UNL     1     -37.777  33.497  -7.140  0.00  0.00    +0.086 C 
ATOM      8  N1  UNL     1     -37.396  33.934  -8.299  0.00  0.00    -0.171 NA
ATOM      9  N2  UNL     1     -36.306  33.200  -8.759  0.00  0.00    -0.222 N 
ATOM     10  C14 UNL     1     -35.992  32.289  -7.899  0.00  0.00    +0.257 C 
ATOM     11  O2  UNL     1     -34.941  31.391  -8.084  0.00  0.00    -0.270 OA
ATOM     12  C15 UNL     1     -36.892  32.341  -6.695  0.00  0.00    +0.110 C 
ATOM     13  C16 UNL     1     -37.666  31.020  -6.561  0.00  0.00    +0.015 C 
ATOM     14  C17 UNL     1     -36.060  32.678  -5.444  0.00  0.00    +0.015 C 
BRANCH   9  15
ATOM     15  C7  UNL     1     -35.628  33.484 -10.031  0.00  0.00    +0.108 C 
ATOM     16  C8  UNL     1     -36.247  32.611 -11.145  0.00  0.00    +0.024 C 
ATOM     17  C9  UNL     1     -35.866  33.050 -12.570  0.00  0.00    +0.002 C 
ATOM     18  C10 UNL     1     -36.862  34.068 -13.149  0.00  0.00    +0.000 C 
ATOM     19  C11 UNL     1     -36.716  35.479 -12.567  0.00  0.00    +0.000 C 
ATOM     20  C12 UNL     1     -36.881  35.537 -11.040  0.00  0.00    +0.002 C 
ATOM     21  C13 UNL     1     -35.638  35.010 -10.299  0.00  0.00    +0.024 C 
ENDBRANCH   9  15
ENDBRANCH   4   7
BRANCH   1  23
ATOM     22  C1  UNL     1     -42.814  35.551  -3.322  0.00  0.00    +0.253 C 
ATOM     23  O1  UNL     1     -42.257  35.961  -4.567  0.00  0.00    -0.468 OA
ENDBRANCH   1  23
BRANCH   6  24
ATOM     24  O3  UNL     1     -42.649  33.876  -6.298  0.00  0.00    -0.472 OA
BRANCH  24  25
ATOM     25  C20 UNL     1     -43.139  32.545  -6.122  0.00  0.00    +0.206 C 
BRANCH  25  26
ATOM     26  C21 UNL     1     -43.335  32.221  -4.634  0.00  0.00    +0.051 C 
BRANCH  26  27
ATOM     27  C22 UNL     1     -44.154  30.937  -4.458  0.00  0.00    +0.051 C 
BRANCH  27  28
ATOM     28  C23 UNL     1     -45.338  31.162  -3.512  0.00  0.00    +0.206 C 
BRANCH  28  29
ATOM     29  O4  UNL     1     -46.552  31.293  -4.252  0.00  0.00    -0.475 OA
BRANCH  29  30
ATOM     30  C24 UNL     1     -46.739  32.136  -5.361  0.00  0.00    +0.139 A 
ATOM     31  C25 UNL     1     -46.813  33.538  -5.249  0.00  0.00    +0.037 A 
ATOM     32  C26 UNL     1     -47.002  34.329  -6.386  0.00  0.00    +0.006 A 
ATOM     33  C27 UNL     1     -47.115  33.740  -7.657  0.00  0.00    +0.040 A 
ATOM     34  C29 UNL     1     -47.035  32.341  -7.765  0.00  0.00    +0.006 A 
ATOM     35  C30 UNL     1     -46.848  31.550  -6.626  0.00  0.00    +0.037 A 
BRANCH  33  36
ATOM     36  C28 UNL     1     -47.313  34.581  -8.863  0.00  0.00    +0.208 A 
ATOM     37  N3  UNL     1     -46.936  34.248 -10.118  0.00  0.00    -0.106 NA
ATOM     38  N4  UNL     1     -47.288  35.270 -10.881  0.00  0.00    -0.021 NA
ATOM     39  N5  UNL     1     -47.863  36.200 -10.137  0.00  0.00    -0.021 NA
ATOM     40  N6  UNL     1     -47.892  35.801  -8.877  0.00  0.00    -0.106 NA
ENDBRANCH  33  36
ENDBRANCH  29  30
ENDBRANCH  28  29
ENDBRANCH  27  28
ENDBRANCH  26  27
ENDBRANCH  25  26
ENDBRANCH  24  25
ENDBRANCH   6  24
TORSDOF 11
ENDMDL
MODEL 3
REMARK VINA RESULT:      -6.5      1.546      2.048
REMARK  Name = ./data/4wxx_site_bc02/pdb/l0c0.pdb
REMARK  11 active torsions:
REMARK  status: ('A' for Active; 'I' for Inactive)
REMARK    1  A    between atoms: O1_2  and  C2_3
REMARK    2  A    between atoms: C5_6  and  C6_7
REMARK    3  A    between atoms: N2_9  and  C7_10
REMARK    4  A    between atoms: C19_23  and  O3_24
REMARK    5  A    between atoms: O3_24  and  C20_25
REMARK    6  A    between atoms: C20_25  and  C21_26
REMARK    7  A    between atoms: C21_26  and  C22_27
REMARK    8  A    between atoms: C22_27  and  C23_28
REMARK    9  A    between atoms: C23_28  and  O4_29
REMARK   10  A    between atoms: O4_29  and  C24_30
REMARK   11  A    between atoms: C27_33  and  C28_34
REMARK                            x       y       z     vdW  Elec       q    Type
REMARK                         _______ _______ _______ _____ _____    ______ ____
ROOT
ATOM      1  C2  UNL     1     -40.428  35.731  -4.202  0.00  0.00    +0.172 A 
ATOM      2  C3  UNL     1     -39.144  35.541  -4.746  0.00  0.00    +0.040 A 
ATOM      3  C4  UNL     1     -38.969  34.807  -5.922  0.00  0.00    +0.005 A 
ATOM      4  C5  UNL     1     -40.073  34.243  -6.583  0.00  0.00    +0.019 A 
ATOM      5  C18 UNL     1     -41.352  34.416  -6.020  0.00  0.00    +0.041 A 
ATOM      6  C19 UNL     1     -41.540  35.174  -4.848  0.00  0.00    +0.172 A 
ENDROOT
BRANCH   4   7
ATOM      7  C6  UNL     1     -39.949  33.494  -7.867  0.00  0.00    +0.086 C 
ATOM      8  N1  UNL     1     -39.806  34.125  -8.989  0.00  0.00    -0.171 NA
ATOM      9  N2  UNL     1     -39.673  33.221 -10.040  0.00  0.00    -0.222 N 
ATOM     10  C14 UNL     1     -39.737  32.011  -9.593  0.00  0.00    +0.257 C 
ATOM     11  O2  UNL     1     -39.640  30.886 -10.412  0.00  0.00    -0.270 OA
ATOM     12  C15 UNL     1     -39.914  31.990  -8.099  0.00  0.00    +0.110 C 
ATOM     13  C16 UNL     1     -41.242  31.305  -7.740  0.00  0.00    +0.015 C 
ATOM     14  C17 UNL     1     -38.694  31.316  -7.446  0.00  0.00    +0.015 C 
BRANCH   9  15
ATOM     15  C7  UNL     1     -39.459  33.637 -11.433  0.00  0.00    +0.108 C 
ATOM     16  C8  UNL     1     -40.269  34.923 -11.712  0.00  0.00    +0.024 C 
ATOM     17  C9  UNL     1     -39.873  35.645 -13.011  0.00  0.00    +0.002 C 
ATOM     18  C10 UNL     1     -38.763  36.684 -12.782  0.00  0.00    +0.000 C 
ATOM     19  C11 UNL     1     -37.371  36.071 -12.579  0.00  0.00    +0.000 C 
ATOM     20  C12 UNL     1     -37.295  35.092 -11.397  0.00  0.00    +0.002 C 
ATOM     21  C13 UNL     1     -37.941  33.732 -11.723  0.00  0.00    +0.024 C 
ENDBRANCH   9  15
ENDBRANCH   4   7
BRANCH   1  23
ATOM     22  C1  UNL     1     -40.738  35.895  -1.724  0.00  0.00    +0.253 C 
ATOM     23  O1  UNL     1     -40.639  36.466  -3.025  0.00  0.00    -0.468 OA
ENDBRANCH   1  23
BRANCH   6  24
ATOM     24  O3  UNL     1     -42.815  35.397  -4.297  0.00  0.00    -0.472 OA
BRANCH  24  25
ATOM     25  C20 UNL     1     -43.823  34.400  -4.112  0.00  0.00    +0.206 C 
BRANCH  25  26
ATOM     26  C21 UNL     1     -43.515  33.525  -2.889  0.00  0.00    +0.051 C 
BRANCH  26  27
ATOM     27  C22 UNL     1     -43.844  32.055  -3.173  0.00  0.00    +0.051 C 
BRANCH  27  28
ATOM     28  C23 UNL     1     -45.325  31.761  -2.914  0.00  0.00    +0.206 C 
BRANCH  28  29
ATOM     29  O4  UNL     1     -45.960  31.305  -4.110  0.00  0.00    -0.475 OA
BRANCH  29  30
ATOM     30  C24 UNL     1     -46.293  32.113  -5.210  0.00  0.00    +0.139 A 
ATOM     31  C25 UNL     1     -47.241  33.151  -5.134  0.00  0.00    +0.037 A 
ATOM     32  C26 UNL     1     -47.536  33.924  -6.262  0.00  0.00    +0.006 A 
ATOM     33  C27 UNL     1     -46.887  33.680  -7.485  0.00  0.00    +0.040 A 
ATOM     34  C29 UNL     1     -45.938  32.646  -7.555  0.00  0.00    +0.006 A 
ATOM     35  C30 UNL     1     -45.646  31.872  -6.426  0.00  0.00    +0.037 A 
BRANCH  33  36
ATOM     36  C28 UNL     1     -47.199  34.502  -8.680  0.00  0.00    +0.208 A 
ATOM     37  N3  UNL     1     -47.912  35.651  -8.674  0.00  0.00    -0.106 NA
ATOM     38  N4  UNL     1     -47.961  36.049  -9.935  0.00  0.00    -0.021 NA
ATOM     39  N5  UNL     1     -47.306  35.189 -10.696  0.00  0.00    -0.021 NA
ATOM     40  N6  UNL     1     -46.821  34.214  -9.945  0.00  0.00    -0.106 NA
ENDBRANCH  33  36
ENDBRANCH  29  30
ENDBRANCH  28  29
ENDBRANCH  27  28
ENDBRANCH  26  27
ENDBRANCH  25  26
ENDBRANCH  24  25
ENDBRANCH   6  24
TORSDOF 11
ENDMDL
MODEL 4
REMARK VINA RESULT:      -6.0      3.332      8.631
REMARK  Name = ./data/4wxx_site_bc02/pdb/l0c0.pdb
REMARK  11 active torsions:
REMARK  status: ('A' for Active; 'I' for Inactive)
REMARK    1  A    between atoms: O1_2  and  C2_3
REMARK    2  A    between atoms: C5_6  and  C6_7
REMARK    3  A    between atoms: N2_9  and  C7_10
REMARK    4  A    between atoms: C19_23  and  O3_24
REMARK    5  A    between atoms: O3_24  and  C20_25
REMARK    6  A    between atoms: C20_25  and  C21_26
REMARK    7  A    between atoms: C21_26  and  C22_27
REMARK    8  A    between atoms: C22_27  and  C23_28
REMARK    9  A    between atoms: C23_28  and  O4_29
REMARK   10  A    between atoms: O4_29  and  C24_30
REMARK   11  A    between atoms: C27_33  and  C28_34
REMARK                            x       y       z     vdW  Elec       q    Type
REMARK                         _______ _______ _______ _____ _____    ______ ____
ROOT
ATOM      1  C2  UNL     1     -44.039  30.374 -11.576  0.00  0.00    +0.172 A 
ATOM      2  C3  UNL     1     -45.408  30.640 -11.763  0.00  0.00    +0.040 A 
ATOM      3  C4  UNL     1     -46.200  31.080 -10.700  0.00  0.00    +0.005 A 
ATOM      4  C5  UNL     1     -45.645  31.262  -9.422  0.00  0.00    +0.019 A 
ATOM      5  C18 UNL     1     -44.281  30.969  -9.236  0.00  0.00    +0.041 A 
ATOM      6  C19 UNL     1     -43.469  30.548 -10.307  0.00  0.00    +0.172 A 
ENDROOT
BRANCH   4   7
ATOM      7  C6  UNL     1     -46.433  31.777  -8.265  0.00  0.00    +0.086 C 
ATOM      8  N1  UNL     1     -45.837  32.216  -7.202  0.00  0.00    -0.171 NA
ATOM      9  N2  UNL     1     -46.771  32.677  -6.278  0.00  0.00    -0.222 N 
ATOM     10  C14 UNL     1     -47.966  32.529  -6.745  0.00  0.00    +0.257 C 
ATOM     11  O2  UNL     1     -49.114  32.896  -6.044  0.00  0.00    -0.270 OA
ATOM     12  C15 UNL     1     -47.942  31.929  -8.125  0.00  0.00    +0.110 C 
ATOM     13  C16 UNL     1     -48.674  30.578  -8.121  0.00  0.00    +0.015 C 
ATOM     14  C17 UNL     1     -48.534  32.931  -9.132  0.00  0.00    +0.015 C 
BRANCH   9  15
ATOM     15  C7  UNL     1     -46.396  33.269  -4.986  0.00  0.00    +0.108 C 
ATOM     16  C8  UNL     1     -45.276  32.422  -4.343  0.00  0.00    +0.024 C 
ATOM     17  C9  UNL     1     -44.565  33.112  -3.165  0.00  0.00    +0.002 C 
ATOM     18  C10 UNL     1     -43.348  33.932  -3.623  0.00  0.00    +0.000 C 
ATOM     19  C11 UNL     1     -43.713  35.254  -4.310  0.00  0.00    +0.000 C 
ATOM     20  C12 UNL     1     -44.605  35.080  -5.548  0.00  0.00    +0.002 C 
ATOM     21  C13 UNL     1     -46.067  34.771  -5.176  0.00  0.00    +0.024 C 
ENDBRANCH   9  15
ENDBRANCH   4   7
BRANCH   1  23
ATOM     22  C1  UNL     1     -42.652  30.784 -13.619  0.00  0.00    +0.253 C 
ATOM     23  O1  UNL     1     -43.213  29.934 -12.623  0.00  0.00    -0.468 OA
ENDBRANCH   1  23
BRANCH   6  24
ATOM     24  O3  UNL     1     -42.094  30.296 -10.151  0.00  0.00    -0.472 OA
BRANCH  24  25
ATOM     25  C20 UNL     1     -41.071  31.293 -10.094  0.00  0.00    +0.206 C 
BRANCH  25  26
ATOM     26  C21 UNL     1     -39.706  30.704 -10.479  0.00  0.00    +0.051 C 
BRANCH  26  27
ATOM     27  C22 UNL     1     -38.572  31.665 -10.104  0.00  0.00    +0.051 C 
BRANCH  27  28
ATOM     28  C23 UNL     1     -37.982  31.315  -8.734  0.00  0.00    +0.206 C 
BRANCH  28  29
ATOM     29  O4  UNL     1     -38.962  31.490  -7.709  0.00  0.00    -0.475 OA
BRANCH  29  30
ATOM     30  C24 UNL     1     -39.199  32.685  -7.010  0.00  0.00    +0.139 A 
ATOM     31  C25 UNL     1     -40.480  33.257  -6.889  0.00  0.00    +0.037 A 
ATOM     32  C26 UNL     1     -40.659  34.450  -6.183  0.00  0.00    +0.006 A 
ATOM     33  C27 UNL     1     -39.565  35.093  -5.578  0.00  0.00    +0.040 A 
ATOM     34  C29 UNL     1     -38.289  34.516  -5.696  0.00  0.00    +0.006 A 
ATOM     35  C30 UNL     1     -38.112  33.324  -6.405  0.00  0.00    +0.037 A 
BRANCH  33  36
ATOM     36  C28 UNL     1     -39.757  36.358  -4.826  0.00  0.00    +0.208 A 
ATOM     37  N3  UNL     1     -40.088  37.549  -5.374  0.00  0.00    -0.106 NA
ATOM     38  N4  UNL     1     -40.147  38.403  -4.365  0.00  0.00    -0.021 NA
ATOM     39  N5  UNL     1     -39.870  37.774  -3.236  0.00  0.00    -0.021 NA
ATOM     40  N6  UNL     1     -39.621  36.500  -3.489  0.00  0.00    -0.106 NA
ENDBRANCH  33  36
ENDBRANCH  29  30
ENDBRANCH  28  29
ENDBRANCH  27  28
ENDBRANCH  26  27
ENDBRANCH  25  26
ENDBRANCH  24  25
ENDBRANCH   6  24
TORSDOF 11
ENDMDL
MODEL 5
REMARK VINA RESULT:      -5.7      3.685      8.984
REMARK  Name = ./data/4wxx_site_bc02/pdb/l0c0.pdb
REMARK  11 active torsions:
REMARK  status: ('A' for Active; 'I' for Inactive)
REMARK    1  A    between atoms: O1_2  and  C2_3
REMARK    2  A    between atoms: C5_6  and  C6_7
REMARK    3  A    between atoms: N2_9  and  C7_10
REMARK    4  A    between atoms: C19_23  and  O3_24
REMARK    5  A    between atoms: O3_24  and  C20_25
REMARK    6  A    between atoms: C20_25  and  C21_26
REMARK    7  A    between atoms: C21_26  and  C22_27
REMARK    8  A    between atoms: C22_27  and  C23_28
REMARK    9  A    between atoms: C23_28  and  O4_29
REMARK   10  A    between atoms: O4_29  and  C24_30
REMARK   11  A    between atoms: C27_33  and  C28_34
REMARK                            x       y       z     vdW  Elec       q    Type
REMARK                         _______ _______ _______ _____ _____    ______ ____
ROOT
ATOM      1  C2  UNL     1     -46.577  30.538  -7.904  0.00  0.00    +0.172 A 
ATOM      2  C3  UNL     1     -47.383  31.171  -6.940  0.00  0.00    +0.040 A 
ATOM      3  C4  UNL     1     -46.810  31.773  -5.817  0.00  0.00    +0.005 A 
ATOM      4  C5  UNL     1     -45.418  31.755  -5.628  0.00  0.00    +0.019 A 
ATOM      5  C18 UNL     1     -44.620  31.098  -6.584  0.00  0.00    +0.041 A 
ATOM      6  C19 UNL     1     -45.187  30.510  -7.731  0.00  0.00    +0.172 A 
ENDROOT
BRANCH   4   7
ATOM      7  C6  UNL     1     -44.750  32.426  -4.474  0.00  0.00    +0.086 C 
ATOM      8  N1  UNL     1     -44.181  33.581  -4.620  0.00  0.00    -0.171 NA
ATOM      9  N2  UNL     1     -43.663  34.021  -3.405  0.00  0.00    -0.222 N 
ATOM     10  C14 UNL     1     -43.894  33.147  -2.482  0.00  0.00    +0.257 C 
ATOM     11  O2  UNL     1     -43.489  33.307  -1.157  0.00  0.00    -0.270 OA
ATOM     12  C15 UNL     1     -44.653  31.968  -3.026  0.00  0.00    +0.110 C 
ATOM     13  C16 UNL     1     -43.818  30.688  -2.864  0.00  0.00    +0.015 C 
ATOM     14  C17 UNL     1     -46.027  31.879  -2.338  0.00  0.00    +0.015 C 
BRANCH   9  15
ATOM     15  C7  UNL     1     -42.989  35.317  -3.244  0.00  0.00    +0.108 C 
ATOM     16  C8  UNL     1     -41.667  35.112  -2.472  0.00  0.00    +0.024 C 
ATOM     17  C9  UNL     1     -40.712  36.318  -2.531  0.00  0.00    +0.002 C 
ATOM     18  C10 UNL     1     -39.746  36.233  -3.724  0.00  0.00    +0.000 C 
ATOM     19  C11 UNL     1     -40.398  36.554  -5.075  0.00  0.00    +0.000 C 
ATOM     20  C12 UNL     1     -41.586  35.642  -5.418  0.00  0.00    +0.002 C 
ATOM     21  C13 UNL     1     -42.853  36.010  -4.623  0.00  0.00    +0.024 C 
ENDBRANCH   9  15
ENDBRANCH   4   7
BRANCH   1  23
ATOM     22  C1  UNL     1     -48.174  30.477  -9.832  0.00  0.00    +0.253 C 
ATOM     23  O1  UNL     1     -47.120  29.927  -9.046  0.00  0.00    -0.468 OA
ENDBRANCH   1  23
BRANCH   6  24
ATOM     24  O3  UNL     1     -44.402  29.890  -8.721  0.00  0.00    -0.472 OA
BRANCH  24  25
ATOM     25  C20 UNL     1     -43.602  30.572  -9.690  0.00  0.00    +0.206 C 
BRANCH  25  26
ATOM     26  C21 UNL     1     -42.108  30.317  -9.448  0.00  0.00    +0.051 C 
BRANCH  26  27
ATOM     27  C22 UNL     1     -41.305  31.616  -9.577  0.00  0.00    +0.051 C 
BRANCH  27  28
ATOM     28  C23 UNL     1     -41.394  32.451  -8.295  0.00  0.00    +0.206 C 
BRANCH  28  29
ATOM     29  O4  UNL     1     -40.591  33.627  -8.408  0.00  0.00    -0.475 OA
BRANCH  29  30
ATOM     30  C24 UNL     1     -39.230  33.715  -8.068  0.00  0.00    +0.139 A 
ATOM     31  C25 UNL     1     -38.215  33.895  -9.026  0.00  0.00    +0.037 A 
ATOM     32  C26 UNL     1     -36.875  33.975  -8.632  0.00  0.00    +0.006 A 
ATOM     33  C27 UNL     1     -36.523  33.882  -7.274  0.00  0.00    +0.040 A 
ATOM     34  C29 UNL     1     -37.541  33.708  -6.320  0.00  0.00    +0.006 A 
ATOM     35  C30 UNL     1     -38.880  33.626  -6.717  0.00  0.00    +0.037 A 
BRANCH  33  36
ATOM     36  C28 UNL     1     -35.102  33.969  -6.856  0.00  0.00    +0.208 A 
ATOM     37  N3  UNL     1     -34.553  34.991  -6.162  0.00  0.00    -0.106 NA
ATOM     38  N4  UNL     1     -33.277  34.675  -6.009  0.00  0.00    -0.021 NA
ATOM     39  N5  UNL     1     -33.039  33.506  -6.579  0.00  0.00    -0.021 NA
ATOM     40  N6  UNL     1     -34.155  33.041  -7.115  0.00  0.00    -0.106 NA
ENDBRANCH  33  36
ENDBRANCH  29  30
ENDBRANCH  28  29
ENDBRANCH  27  28
ENDBRANCH  26  27
ENDBRANCH  25  26
ENDBRANCH  24  25
ENDBRANCH   6  24
TORSDOF 11
ENDMDL
MODEL 6
REMARK VINA RESULT:      -5.6      3.341     10.146
REMARK  Name = ./data/4wxx_site_bc02/pdb/l0c0.pdb
REMARK  11 active torsions:
REMARK  status: ('A' for Active; 'I' for Inactive)
REMARK    1  A    between atoms: O1_2  and  C2_3
REMARK    2  A    between atoms: C5_6  and  C6_7
REMARK    3  A    between atoms: N2_9  and  C7_10
REMARK    4  A    between atoms: C19_23  and  O3_24
REMARK    5  A    between atoms: O3_24  and  C20_25
REMARK    6  A    between atoms: C20_25  and  C21_26
REMARK    7  A    between atoms: C21_26  and  C22_27
REMARK    8  A    between atoms: C22_27  and  C23_28
REMARK    9  A    between atoms: C23_28  and  O4_29
REMARK   10  A    between atoms: O4_29  and  C24_30
REMARK   11  A    between atoms: C27_33  and  C28_34
REMARK                            x       y       z     vdW  Elec       q    Type
REMARK                         _______ _______ _______ _____ _____    ______ ____
ROOT
ATOM      1  C2  UNL     1     -44.415  30.402 -11.297  0.00  0.00    +0.172 A 
ATOM      2  C3  UNL     1     -45.794  30.613 -11.479  0.00  0.00    +0.040 A 
ATOM      3  C4  UNL     1     -46.593  31.056 -10.422  0.00  0.00    +0.005 A 
ATOM      4  C5  UNL     1     -46.034  31.295  -9.155  0.00  0.00    +0.019 A 
ATOM      5  C18 UNL     1     -44.659  31.057  -8.974  0.00  0.00    +0.041 A 
ATOM      6  C19 UNL     1     -43.842  30.635 -10.039  0.00  0.00    +0.172 A 
ENDROOT
BRANCH   4   7
ATOM      7  C6  UNL     1     -46.832  31.816  -8.006  0.00  0.00    +0.086 C 
ATOM      8  N1  UNL     1     -46.253  32.143  -6.894  0.00  0.00    -0.171 NA
ATOM      9  N2  UNL     1     -47.188  32.635  -5.988  0.00  0.00    -0.222 N 
ATOM     10  C14 UNL     1     -48.367  32.619  -6.516  0.00  0.00    +0.257 C 
ATOM     11  O2  UNL     1     -49.512  33.048  -5.846  0.00  0.00    -0.270 OA
ATOM     12  C15 UNL     1     -48.326  32.093  -7.925  0.00  0.00    +0.110 C 
ATOM     13  C16 UNL     1     -49.172  30.815  -8.032  0.00  0.00    +0.015 C 
ATOM     14  C17 UNL     1     -48.779  33.196  -8.898  0.00  0.00    +0.015 C 
BRANCH   9  15
ATOM     15  C7  UNL     1     -46.827  33.121  -4.649  0.00  0.00    +0.108 C 
ATOM     16  C8  UNL     1     -46.548  31.915  -3.726  0.00  0.00    +0.024 C 
ATOM     17  C9  UNL     1     -45.840  32.282  -2.410  0.00  0.00    +0.002 C 
ATOM     18  C10 UNL     1     -44.309  32.226  -2.540  0.00  0.00    +0.000 C 
ATOM     19  C11 UNL     1     -43.709  33.409  -3.312  0.00  0.00    +0.000 C 
ATOM     20  C12 UNL     1     -44.257  33.556  -4.739  0.00  0.00    +0.002 C 
ATOM     21  C13 UNL     1     -45.677  34.153  -4.760  0.00  0.00    +0.024 C 
ENDBRANCH   9  15
ENDBRANCH   4   7
BRANCH   1  23
ATOM     22  C1  UNL     1     -43.424  30.634 -13.584  0.00  0.00    +0.253 C 
ATOM     23  O1  UNL     1     -43.583  29.961 -12.338  0.00  0.00    -0.468 OA
ENDBRANCH   1  23
BRANCH   6  24
ATOM     24  O3  UNL     1     -42.457  30.437  -9.888  0.00  0.00    -0.472 OA
BRANCH  24  25
ATOM     25  C20 UNL     1     -41.455  31.444 -10.048  0.00  0.00    +0.206 C 
BRANCH  25  26
ATOM     26  C21 UNL     1     -40.432  31.039 -11.120  0.00  0.00    +0.051 C 
BRANCH  26  27
ATOM     27  C22 UNL     1     -40.402  32.063 -12.260  0.00  0.00    +0.051 C 
BRANCH  27  28
ATOM     28  C23 UNL     1     -40.373  33.495 -11.716  0.00  0.00    +0.206 C 
BRANCH  28  29
ATOM     29  O4  UNL     1     -39.076  34.069 -11.890  0.00  0.00    -0.475 OA
BRANCH  29  30
ATOM     30  C24 UNL     1     -38.087  34.153 -10.895  0.00  0.00    +0.139 A 
ATOM     31  C25 UNL     1     -36.853  34.798 -11.101  0.00  0.00    +0.037 A 
ATOM     32  C26 UNL     1     -35.903  34.851 -10.075  0.00  0.00    +0.006 A 
ATOM     33  C27 UNL     1     -36.168  34.268  -8.824  0.00  0.00    +0.040 A 
ATOM     34  C29 UNL     1     -37.404  33.630  -8.622  0.00  0.00    +0.006 A 
ATOM     35  C30 UNL     1     -38.352  33.575  -9.649  0.00  0.00    +0.037 A 
BRANCH  33  36
ATOM     36  C28 UNL     1     -35.161  34.327  -7.737  0.00  0.00    +0.208 A 
ATOM     37  N3  UNL     1     -34.043  33.570  -7.666  0.00  0.00    -0.106 NA
ATOM     38  N4  UNL     1     -33.437  33.929  -6.546  0.00  0.00    -0.021 NA
ATOM     39  N5  UNL     1     -34.142  34.872  -5.945  0.00  0.00    -0.021 NA
ATOM     40  N6  UNL     1     -35.221  35.141  -6.661  0.00  0.00    -0.106 NA
ENDBRANCH  33  36
ENDBRANCH  29  30
ENDBRANCH  28  29
ENDBRANCH  27  28
ENDBRANCH  26  27
ENDBRANCH  25  26
ENDBRANCH  24  25
ENDBRANCH   6  24
TORSDOF 11
ENDMDL
MODEL 7
REMARK VINA RESULT:      -4.6      2.413      3.398
REMARK  Name = ./data/4wxx_site_bc02/pdb/l0c0.pdb
REMARK  11 active torsions:
REMARK  status: ('A' for Active; 'I' for Inactive)
REMARK    1  A    between atoms: O1_2  and  C2_3
REMARK    2  A    between atoms: C5_6  and  C6_7
REMARK    3  A    between atoms: N2_9  and  C7_10
REMARK    4  A    between atoms: C19_23  and  O3_24
REMARK    5  A    between atoms: O3_24  and  C20_25
REMARK    6  A    between atoms: C20_25  and  C21_26
REMARK    7  A    between atoms: C21_26  and  C22_27
REMARK    8  A    between atoms: C22_27  and  C23_28
REMARK    9  A    between atoms: C23_28  and  O4_29
REMARK   10  A    between atoms: O4_29  and  C24_30
REMARK   11  A    between atoms: C27_33  and  C28_34
REMARK                            x       y       z     vdW  Elec       q    Type
REMARK                         _______ _______ _______ _____ _____    ______ ____
ROOT
ATOM      1  C2  UNL     1     -40.187  35.833  -4.873  0.00  0.00    +0.172 A 
ATOM      2  C3  UNL     1     -38.832  35.970  -5.228  0.00  0.00    +0.040 A 
ATOM      3  C4  UNL     1     -38.237  35.080  -6.125  0.00  0.00    +0.005 A 
ATOM      4  C5  UNL     1     -38.979  34.029  -6.688  0.00  0.00    +0.019 A 
ATOM      5  C18 UNL     1     -40.327  33.882  -6.310  0.00  0.00    +0.041 A 
ATOM      6  C19 UNL     1     -40.942  34.789  -5.425  0.00  0.00    +0.172 A 
ENDROOT
BRANCH   4   7
ATOM      7  C6  UNL     1     -38.407  33.081  -7.689  0.00  0.00    +0.086 C 
ATOM      8  N1  UNL     1     -37.914  33.517  -8.805  0.00  0.00    -0.171 NA
ATOM      9  N2  UNL     1     -37.407  32.459  -9.556  0.00  0.00    -0.222 N 
ATOM     10  C14 UNL     1     -37.582  31.345  -8.925  0.00  0.00    +0.257 C 
ATOM     11  O2  UNL     1     -37.181  30.108  -9.430  0.00  0.00    -0.270 OA
ATOM     12  C15 UNL     1     -38.251  31.569  -7.597  0.00  0.00    +0.110 C 
ATOM     13  C16 UNL     1     -39.601  30.836  -7.560  0.00  0.00    +0.015 C 
ATOM     14  C17 UNL     1     -37.303  31.138  -6.463  0.00  0.00    +0.015 C 
BRANCH   9  15
ATOM     15  C7  UNL     1     -36.750  32.642 -10.857  0.00  0.00    +0.108 C 
ATOM     16  C8  UNL     1     -35.483  31.761 -10.917  0.00  0.00    +0.024 C 
ATOM     17  C9  UNL     1     -34.896  31.601 -12.331  0.00  0.00    +0.002 C 
ATOM     18  C10 UNL     1     -35.482  30.385 -13.067  0.00  0.00    +0.000 C 
ATOM     19  C11 UNL     1     -36.913  30.598 -13.575  0.00  0.00    +0.000 C 
ATOM     20  C12 UNL     1     -37.915  30.952 -12.466  0.00  0.00    +0.002 C 
ATOM     21  C13 UNL     1     -37.774  32.413 -11.997  0.00  0.00    +0.024 C 
ENDBRANCH   9  15
ENDBRANCH   4   7
BRANCH   1  23
ATOM     22  C1  UNL     1     -40.235  37.913  -3.481  0.00  0.00    +0.253 C 
ATOM     23  O1  UNL     1     -40.818  36.711  -3.978  0.00  0.00    -0.468 OA
ENDBRANCH   1  23
BRANCH   6  24
ATOM     24  O3  UNL     1     -42.300  34.687  -5.072  0.00  0.00    -0.472 OA
BRANCH  24  25
ATOM     25  C20 UNL     1     -43.197  33.666  -5.517  0.00  0.00    +0.206 C 
BRANCH  25  26
ATOM     26  C21 UNL     1     -43.741  32.855  -4.331  0.00  0.00    +0.051 C 
BRANCH  26  27
ATOM     27  C22 UNL     1     -44.079  31.423  -4.759  0.00  0.00    +0.051 C 
BRANCH  27  28
ATOM     28  C23 UNL     1     -45.521  31.061  -4.387  0.00  0.00    +0.206 C 
BRANCH  28  29
ATOM     29  O4  UNL     1     -46.296  30.828  -5.564  0.00  0.00    -0.475 OA
BRANCH  29  30
ATOM     30  C24 UNL     1     -46.531  31.770  -6.580  0.00  0.00    +0.139 A 
ATOM     31  C25 UNL     1     -46.586  31.422  -7.943  0.00  0.00    +0.037 A 
ATOM     32  C26 UNL     1     -46.822  32.401  -8.914  0.00  0.00    +0.006 A 
ATOM     33  C27 UNL     1     -47.013  33.743  -8.544  0.00  0.00    +0.040 A 
ATOM     34  C29 UNL     1     -46.963  34.084  -7.181  0.00  0.00    +0.006 A 
ATOM     35  C30 UNL     1     -46.725  33.105  -6.212  0.00  0.00    +0.037 A 
BRANCH  33  36
ATOM     36  C28 UNL     1     -47.265  34.781  -9.574  0.00  0.00    +0.208 A 
ATOM     37  N3  UNL     1     -47.927  35.941  -9.368  0.00  0.00    -0.106 NA
ATOM     38  N4  UNL     1     -47.934  36.562 -10.537  0.00  0.00    -0.021 NA
ATOM     39  N5  UNL     1     -47.301  35.824 -11.433  0.00  0.00    -0.021 NA
ATOM     40  N6  UNL     1     -46.874  34.709 -10.865  0.00  0.00    -0.106 NA
ENDBRANCH  33  36
ENDBRANCH  29  30
ENDBRANCH  28  29
ENDBRANCH  27  28
ENDBRANCH  26  27
ENDBRANCH  25  26
ENDBRANCH  24  25
ENDBRANCH   6  24
TORSDOF 11
ENDMDL
MODEL 8
REMARK VINA RESULT:      -4.3      3.423      9.458
REMARK  Name = ./data/4wxx_site_bc02/pdb/l0c0.pdb
REMARK  11 active torsions:
REMARK  status: ('A' for Active; 'I' for Inactive)
REMARK    1  A    between atoms: O1_2  and  C2_3
REMARK    2  A    between atoms: C5_6  and  C6_7
REMARK    3  A    between atoms: N2_9  and  C7_10
REMARK    4  A    between atoms: C19_23  and  O3_24
REMARK    5  A    between atoms: O3_24  and  C20_25
REMARK    6  A    between atoms: C20_25  and  C21_26
REMARK    7  A    between atoms: C21_26  and  C22_27
REMARK    8  A    between atoms: C22_27  and  C23_28
REMARK    9  A    between atoms: C23_28  and  O4_29
REMARK   10  A    between atoms: O4_29  and  C24_30
REMARK   11  A    between atoms: C27_33  and  C28_34
REMARK                            x       y       z     vdW  Elec       q    Type
REMARK                         _______ _______ _______ _____ _____    ______ ____
ROOT
ATOM      1  C2  UNL     1     -46.465  30.612  -7.936  0.00  0.00    +0.172 A 
ATOM      2  C3  UNL     1     -47.259  31.294  -6.995  0.00  0.00    +0.040 A 
ATOM      3  C4  UNL     1     -46.676  31.918  -5.890  0.00  0.00    +0.005 A 
ATOM      4  C5  UNL     1     -45.285  31.875  -5.696  0.00  0.00    +0.019 A 
ATOM      5  C18 UNL     1     -44.500  31.170  -6.627  0.00  0.00    +0.041 A 
ATOM      6  C19 UNL     1     -45.076  30.559  -7.757  0.00  0.00    +0.172 A 
ENDROOT
BRANCH   4   7
ATOM      7  C6  UNL     1     -44.606  32.567  -4.561  0.00  0.00    +0.086 C 
ATOM      8  N1  UNL     1     -44.033  33.716  -4.735  0.00  0.00    -0.171 NA
ATOM      9  N2  UNL     1     -43.504  34.180  -3.534  0.00  0.00    -0.222 N 
ATOM     10  C14 UNL     1     -43.732  33.328  -2.591  0.00  0.00    +0.257 C 
ATOM     11  O2  UNL     1     -43.317  33.513  -1.273  0.00  0.00    -0.270 OA
ATOM     12  C15 UNL     1     -44.501  32.140  -3.104  0.00  0.00    +0.110 C 
ATOM     13  C16 UNL     1     -43.671  30.860  -2.920  0.00  0.00    +0.015 C 
ATOM     14  C17 UNL     1     -45.871  32.073  -2.404  0.00  0.00    +0.015 C 
BRANCH   9  15
ATOM     15  C7  UNL     1     -42.823  35.476  -3.406  0.00  0.00    +0.108 C 
ATOM     16  C8  UNL     1     -41.561  35.305  -2.531  0.00  0.00    +0.024 C 
ATOM     17  C9  UNL     1     -40.586  36.493  -2.596  0.00  0.00    +0.002 C 
ATOM     18  C10 UNL     1     -39.540  36.324  -3.710  0.00  0.00    +0.000 C 
ATOM     19  C11 UNL     1     -40.091  36.567  -5.121  0.00  0.00    +0.000 C 
ATOM     20  C12 UNL     1     -41.265  35.649  -5.491  0.00  0.00    +0.002 C 
ATOM     21  C13 UNL     1     -42.579  36.079  -4.812  0.00  0.00    +0.024 C 
ENDBRANCH   9  15
ENDBRANCH   4   7
BRANCH   1  23
ATOM     22  C1  UNL     1     -48.309  30.258  -9.591  0.00  0.00    +0.253 C 
ATOM     23  O1  UNL     1     -47.018  29.977  -9.060  0.00  0.00    -0.468 OA
ENDBRANCH   1  23
BRANCH   6  24
ATOM     24  O3  UNL     1     -44.302  29.890  -8.723  0.00  0.00    -0.472 OA
BRANCH  24  25
ATOM     25  C20 UNL     1     -43.465  30.522  -9.694  0.00  0.00    +0.206 C 
BRANCH  25  26
ATOM     26  C21 UNL     1     -42.000  30.534  -9.234  0.00  0.00    +0.051 C 
BRANCH  26  27
ATOM     27  C22 UNL     1     -41.170  31.504 -10.082  0.00  0.00    +0.051 C 
BRANCH  27  28
ATOM     28  C23 UNL     1     -40.569  32.618  -9.219  0.00  0.00    +0.206 C 
BRANCH  28  29
ATOM     29  O4  UNL     1     -39.858  33.552 -10.033  0.00  0.00    -0.475 OA
BRANCH  29  30
ATOM     30  C24 UNL     1     -38.467  33.556 -10.238  0.00  0.00    +0.139 A 
ATOM     31  C25 UNL     1     -37.814  32.608 -11.049  0.00  0.00    +0.037 A 
ATOM     32  C26 UNL     1     -36.426  32.657 -11.216  0.00  0.00    +0.006 A 
ATOM     33  C27 UNL     1     -35.665  33.655 -10.583  0.00  0.00    +0.040 A 
ATOM     34  C29 UNL     1     -36.322  34.602  -9.779  0.00  0.00    +0.006 A 
ATOM     35  C30 UNL     1     -37.710  34.550  -9.610  0.00  0.00    +0.037 A 
BRANCH  33  36
ATOM     36  C28 UNL     1     -34.193  33.708 -10.763  0.00  0.00    +0.208 A 
ATOM     37  N3  UNL     1     -33.529  33.327 -11.877  0.00  0.00    -0.106 NA
ATOM     38  N4  UNL     1     -32.247  33.527 -11.616  0.00  0.00    -0.021 NA
ATOM     39  N5  UNL     1     -32.116  34.015 -10.394  0.00  0.00    -0.021 NA
ATOM     40  N6  UNL     1     -33.309  34.138  -9.837  0.00  0.00    -0.106 NA
ENDBRANCH  33  36
ENDBRANCH  29  30
ENDBRANCH  28  29
ENDBRANCH  27  28
ENDBRANCH  26  27
ENDBRANCH  25  26
ENDBRANCH  24  25
ENDBRANCH   6  24
TORSDOF 11
ENDMDL
