MODEL 1
REMARK VINA RESULT:      -6.7      0.000      0.000
REMARK  Name = ./data/4wxx_site_bc02/pdb/l0c2.pdb
REMARK  11 active torsions:
REMARK  status: ('A' for Active; 'I' for Inactive)
REMARK    1  A    between atoms: O1_2  and  C2_3
REMARK    2  A    between atoms: C5_6  and  C6_7
REMARK    3  A    between atoms: N2_9  and  C7_10
REMARK    4  A    between atoms: C19_23  and  O3_24
REMARK    5  A    between atoms: O3_24  and  C20_25
REMARK    6  A    between atoms: C20_25  and  C21_26
REMARK    7  A    between atoms: C21_26  and  C22_27
REMARK    8  A    between atoms: C22_27  and  C23_28
REMARK    9  A    between atoms: C23_28  and  O4_29
REMARK   10  A    between atoms: O4_29  and  C24_30
REMARK   11  A    between atoms: C27_33  and  C28_34
REMARK                            x       y       z     vdW  Elec       q    Type
REMARK                         _______ _______ _______ _____ _____    ______ ____
ROOT
ATOM      1  C2  UNL     1     -85.660  61.362 -11.208  0.00  0.00    +0.172 A 
ATOM      2  C3  UNL     1     -86.567  60.290 -11.163  0.00  0.00    +0.040 A 
ATOM      3  C4  UNL     1     -87.831  60.452 -10.594  0.00  0.00    +0.005 A 
ATOM      4  C5  UNL     1     -88.220  61.686 -10.045  0.00  0.00    +0.019 A 
ATOM      5  C18 UNL     1     -87.303  62.755 -10.089  0.00  0.00    +0.041 A 
ATOM      6  C19 UNL     1     -86.033  62.604 -10.676  0.00  0.00    +0.172 A 
ENDROOT
BRANCH   4   7
ATOM      7  C6  UNL     1     -89.564  61.897  -9.427  0.00  0.00    +0.086 C 
ATOM      8  N1  UNL     1     -89.835  62.982  -8.773  0.00  0.00    -0.171 NA
ATOM      9  N2  UNL     1     -91.154  62.957  -8.324  0.00  0.00    -0.222 N 
ATOM     10  C14 UNL     1     -91.729  61.863  -8.707  0.00  0.00    +0.257 C 
ATOM     11  O2  UNL     1     -93.064  61.563  -8.436  0.00  0.00    -0.270 OA
ATOM     12  C15 UNL     1     -90.780  60.983  -9.467  0.00  0.00    +0.110 C 
ATOM     13  C16 UNL     1     -91.307  60.758 -10.894  0.00  0.00    +0.015 C 
ATOM     14  C17 UNL     1     -90.571  59.671  -8.690  0.00  0.00    +0.015 C 
BRANCH   9  15
ATOM     15  C7  UNL     1     -91.756  64.066  -7.571  0.00  0.00    +0.108 C 
ATOM     16  C8  UNL     1     -91.684  63.767  -6.056  0.00  0.00    +0.024 C 
ATOM     17  C9  UNL     1     -92.645  64.614  -5.212  0.00  0.00    +0.002 C 
ATOM     18  C10 UNL     1     -92.422  66.128  -5.352  0.00  0.00    +0.000 C 
ATOM     19  C11 UNL     1     -92.974  66.677  -6.677  0.00  0.00    +0.000 C 
ATOM     20  C12 UNL     1     -91.974  66.640  -7.848  0.00  0.00    +0.002 C 
ATOM     21  C13 UNL     1     -91.061  65.402  -7.926  0.00  0.00    +0.024 C 
ENDBRANCH   9  15
ENDBRANCH   4   7
BRANCH   1  23
ATOM     22  C1  UNL     1     -83.890  60.052 -12.400  0.00  0.00    +0.253 C 
ATOM     23  O1  UNL     1     -84.383  61.234 -11.775  0.00  0.00    -0.468 OA
ENDBRANCH   1  23
BRANCH   6  24
ATOM     24  O3  UNL     1     -85.106  63.659 -10.752  0.00  0.00    -0.472 OA
BRANCH  24  25
ATOM     25  C20 UNL     1     -85.424  65.050 -10.771  0.00  0.00    +0.206 C 
BRANCH  25  26
ATOM     26  C21 UNL     1     -85.287  65.617 -12.191  0.00  0.00    +0.051 C 
BRANCH  26  27
ATOM     27  C22 UNL     1     -86.577  65.464 -13.011  0.00  0.00    +0.051 C 
BRANCH  27  28
ATOM     28  C23 UNL     1     -87.339  66.787 -13.161  0.00  0.00    +0.206 C 
BRANCH  28  29
ATOM     29  O4  UNL     1     -88.131  67.039 -12.001  0.00  0.00    -0.475 OA
BRANCH  29  30
ATOM     30  C24 UNL     1     -87.852  68.003 -11.018  0.00  0.00    +0.139 A 
ATOM     31  C25 UNL     1     -87.360  69.286 -11.325  0.00  0.00    +0.037 A 
ATOM     32  C26 UNL     1     -87.105  70.208 -10.305  0.00  0.00    +0.006 A 
ATOM     33  C27 UNL     1     -87.339  69.870  -8.960  0.00  0.00    +0.040 A 
ATOM     34  C29 UNL     1     -87.829  68.588  -8.660  0.00  0.00    +0.006 A 
ATOM     35  C30 UNL     1     -88.083  67.668  -9.681  0.00  0.00    +0.037 A 
BRANCH  33  36
ATOM     36  C28 UNL     1     -87.076  70.852  -7.878  0.00  0.00    +0.208 A 
ATOM     37  N3  UNL     1     -85.873  71.078  -7.306  0.00  0.00    -0.106 NA
ATOM     38  N4  UNL     1     -86.079  72.015  -6.396  0.00  0.00    -0.021 NA
ATOM     39  N5  UNL     1     -87.353  72.362  -6.399  0.00  0.00    -0.021 NA
ATOM     40  N6  UNL     1     -88.001  71.655  -7.310  0.00  0.00    -0.106 NA
ENDBRANCH  33  36
ENDBRANCH  29  30
ENDBRANCH  28  29
ENDBRANCH  27  28
ENDBRANCH  26  27
ENDBRANCH  25  26
ENDBRANCH  24  25
ENDBRANCH   6  24
TORSDOF 11
ENDMDL
MODEL 2
REMARK VINA RESULT:      -6.7      2.827      6.225
REMARK  Name = ./data/4wxx_site_bc02/pdb/l0c2.pdb
REMARK  11 active torsions:
REMARK  status: ('A' for Active; 'I' for Inactive)
REMARK    1  A    between atoms: O1_2  and  C2_3
REMARK    2  A    between atoms: C5_6  and  C6_7
REMARK    3  A    between atoms: N2_9  and  C7_10
REMARK    4  A    between atoms: C19_23  and  O3_24
REMARK    5  A    between atoms: O3_24  and  C20_25
REMARK    6  A    between atoms: C20_25  and  C21_26
REMARK    7  A    between atoms: C21_26  and  C22_27
REMARK    8  A    between atoms: C22_27  and  C23_28
REMARK    9  A    between atoms: C23_28  and  O4_29
REMARK   10  A    between atoms: O4_29  and  C24_30
REMARK   11  A    between atoms: C27_33  and  C28_34
REMARK                            x       y       z     vdW  Elec       q    Type
REMARK                         _______ _______ _______ _____ _____    ______ ____
ROOT
ATOM      1  C2  UNL     1     -85.269  61.940 -10.892  0.00  0.00    +0.172 A 
ATOM      2  C3  UNL     1     -84.714  63.231 -10.878  0.00  0.00    +0.040 A 
ATOM      3  C4  UNL     1     -85.537  64.358 -10.849  0.00  0.00    +0.005 A 
ATOM      4  C5  UNL     1     -86.936  64.227 -10.843  0.00  0.00    +0.019 A 
ATOM      5  C18 UNL     1     -87.485  62.929 -10.862  0.00  0.00    +0.041 A 
ATOM      6  C19 UNL     1     -86.662  61.788 -10.875  0.00  0.00    +0.172 A 
ENDROOT
BRANCH   4   7
ATOM      7  C6  UNL     1     -87.849  65.409 -10.813  0.00  0.00    +0.086 C 
ATOM      8  N1  UNL     1     -89.000  65.350 -10.221  0.00  0.00    -0.171 NA
ATOM      9  N2  UNL     1     -89.646  66.581 -10.301  0.00  0.00    -0.222 N 
ATOM     10  C14 UNL     1     -88.901  67.431 -10.929  0.00  0.00    +0.257 C 
ATOM     11  O2  UNL     1     -89.264  68.761 -11.140  0.00  0.00    -0.270 OA
ATOM     12  C15 UNL     1     -87.618  66.800 -11.387  0.00  0.00    +0.110 C 
ATOM     13  C16 UNL     1     -86.423  67.519 -10.739  0.00  0.00    +0.015 C 
ATOM     14  C17 UNL     1     -87.566  66.814 -12.925  0.00  0.00    +0.015 C 
BRANCH   9  15
ATOM     15  C7  UNL     1     -90.964  66.825  -9.696  0.00  0.00    +0.108 C 
ATOM     16  C8  UNL     1     -91.894  65.621  -9.971  0.00  0.00    +0.024 C 
ATOM     17  C9  UNL     1     -93.383  65.935  -9.781  0.00  0.00    +0.002 C 
ATOM     18  C10 UNL     1     -93.738  66.425  -8.369  0.00  0.00    +0.000 C 
ATOM     19  C11 UNL     1     -93.318  67.885  -8.138  0.00  0.00    +0.000 C 
ATOM     20  C12 UNL     1     -91.884  68.060  -7.604  0.00  0.00    +0.002 C 
ATOM     21  C13 UNL     1     -90.821  67.106  -8.182  0.00  0.00    +0.024 C 
ENDBRANCH   9  15
ENDBRANCH   4   7
BRANCH   1  23
ATOM     22  C1  UNL     1     -83.983  60.167 -12.105  0.00  0.00    +0.253 C 
ATOM     23  O1  UNL     1     -84.471  60.786 -10.918  0.00  0.00    -0.468 OA
ENDBRANCH   1  23
BRANCH   6  24
ATOM     24  O3  UNL     1     -87.182  60.481 -10.874  0.00  0.00    -0.472 OA
BRANCH  24  25
ATOM     25  C20 UNL     1     -88.169  59.977  -9.974  0.00  0.00    +0.206 C 
BRANCH  25  26
ATOM     26  C21 UNL     1     -89.481  59.687 -10.717  0.00  0.00    +0.051 C 
BRANCH  26  27
ATOM     27  C22 UNL     1     -90.720  60.003  -9.865  0.00  0.00    +0.051 C 
BRANCH  27  28
ATOM     28  C23 UNL     1     -91.369  61.340 -10.246  0.00  0.00    +0.206 C 
BRANCH  28  29
ATOM     29  O4  UNL     1     -92.497  61.601  -9.411  0.00  0.00    -0.475 OA
BRANCH  29  30
ATOM     30  C24 UNL     1     -92.482  62.378  -8.241  0.00  0.00    +0.139 A 
ATOM     31  C25 UNL     1     -93.635  62.616  -7.468  0.00  0.00    +0.037 A 
ATOM     32  C26 UNL     1     -93.560  63.394  -6.309  0.00  0.00    +0.006 A 
ATOM     33  C27 UNL     1     -92.335  63.948  -5.896  0.00  0.00    +0.040 A 
ATOM     34  C29 UNL     1     -91.189  63.707  -6.672  0.00  0.00    +0.006 A 
ATOM     35  C30 UNL     1     -91.265  62.930  -7.831  0.00  0.00    +0.037 A 
BRANCH  33  36
ATOM     36  C28 UNL     1     -92.255  64.767  -4.661  0.00  0.00    +0.208 A 
ATOM     37  N3  UNL     1     -92.252  64.281  -3.401  0.00  0.00    -0.106 NA
ATOM     38  N4  UNL     1     -92.174  65.336  -2.608  0.00  0.00    -0.021 NA
ATOM     39  N5  UNL     1     -92.129  66.435  -3.339  0.00  0.00    -0.021 NA
ATOM     40  N6  UNL     1     -92.179  66.115  -4.622  0.00  0.00    -0.106 NA
ENDBRANCH  33  36
ENDBRANCH  29  30
ENDBRANCH  28  29
ENDBRANCH  27  28
ENDBRANCH  26  27
ENDBRANCH  25  26
ENDBRANCH  24  25
ENDBRANCH   6  24
TORSDOF 11
ENDMDL
MODEL 3
REMARK VINA RESULT:      -6.4      2.708      8.475
REMARK  Name = ./data/4wxx_site_bc02/pdb/l0c2.pdb
REMARK  11 active torsions:
REMARK  status: ('A' for Active; 'I' for Inactive)
REMARK    1  A    between atoms: O1_2  and  C2_3
REMARK    2  A    between atoms: C5_6  and  C6_7
REMARK    3  A    between atoms: N2_9  and  C7_10
REMARK    4  A    between atoms: C19_23  and  O3_24
REMARK    5  A    between atoms: O3_24  and  C20_25
REMARK    6  A    between atoms: C20_25  and  C21_26
REMARK    7  A    between atoms: C21_26  and  C22_27
REMARK    8  A    between atoms: C22_27  and  C23_28
REMARK    9  A    between atoms: C23_28  and  O4_29
REMARK   10  A    between atoms: O4_29  and  C24_30
REMARK   11  A    between atoms: C27_33  and  C28_34
REMARK                            x       y       z     vdW  Elec       q    Type
REMARK                         _______ _______ _______ _____ _____    ______ ____
ROOT
ATOM      1  C2  UNL     1     -92.351  64.592 -10.159  0.00  0.00    +0.172 A 
ATOM      2  C3  UNL     1     -91.375  64.264 -11.116  0.00  0.00    +0.040 A 
ATOM      3  C4  UNL     1     -90.207  65.021 -11.227  0.00  0.00    +0.005 A 
ATOM      4  C5  UNL     1     -89.986  66.130 -10.394  0.00  0.00    +0.019 A 
ATOM      5  C18 UNL     1     -90.971  66.455  -9.440  0.00  0.00    +0.041 A 
ATOM      6  C19 UNL     1     -92.145  65.688  -9.311  0.00  0.00    +0.172 A 
ENDROOT
BRANCH   4   7
ATOM      7  C6  UNL     1     -88.750  66.963 -10.484  0.00  0.00    +0.086 C 
ATOM      8  N1  UNL     1     -88.631  68.059  -9.803  0.00  0.00    -0.171 NA
ATOM      9  N2  UNL     1     -87.382  68.634 -10.030  0.00  0.00    -0.222 N 
ATOM     10  C14 UNL     1     -86.698  67.897 -10.843  0.00  0.00    +0.257 C 
ATOM     11  O2  UNL     1     -85.395  68.197 -11.238  0.00  0.00    -0.270 OA
ATOM     12  C15 UNL     1     -87.486  66.701 -11.292  0.00  0.00    +0.110 C 
ATOM     13  C16 UNL     1     -86.765  65.412 -10.864  0.00  0.00    +0.015 C 
ATOM     14  C17 UNL     1     -87.717  66.785 -12.811  0.00  0.00    +0.015 C 
BRANCH   9  15
ATOM     15  C7  UNL     1     -86.951  69.876  -9.372  0.00  0.00    +0.108 C 
ATOM     16  C8  UNL     1     -87.613  71.089 -10.063  0.00  0.00    +0.024 C 
ATOM     17  C9  UNL     1     -86.920  72.425  -9.764  0.00  0.00    +0.002 C 
ATOM     18  C10 UNL     1     -86.865  72.773  -8.268  0.00  0.00    +0.000 C 
ATOM     19  C11 UNL     1     -85.796  71.959  -7.522  0.00  0.00    +0.000 C 
ATOM     20  C12 UNL     1     -86.292  70.610  -6.969  0.00  0.00    +0.002 C 
ATOM     21  C13 UNL     1     -87.275  69.828  -7.860  0.00  0.00    +0.024 C 
ENDBRANCH   9  15
ENDBRANCH   4   7
BRANCH   1  23
ATOM     22  C1  UNL     1     -93.718  62.522 -10.496  0.00  0.00    +0.253 C 
ATOM     23  O1  UNL     1     -93.535  63.851 -10.018  0.00  0.00    -0.468 OA
ENDBRANCH   1  23
BRANCH   6  24
ATOM     24  O3  UNL     1     -93.134  65.977  -8.355  0.00  0.00    -0.472 OA
BRANCH  24  25
ATOM     25  C20 UNL     1     -92.968  66.807  -7.205  0.00  0.00    +0.206 C 
BRANCH  25  26
ATOM     26  C21 UNL     1     -92.566  65.966  -5.985  0.00  0.00    +0.051 C 
BRANCH  26  27
ATOM     27  C22 UNL     1     -93.442  64.715  -5.820  0.00  0.00    +0.051 C 
BRANCH  27  28
ATOM     28  C23 UNL     1     -92.659  63.416  -6.050  0.00  0.00    +0.206 C 
BRANCH  28  29
ATOM     29  O4  UNL     1     -91.295  63.705  -6.355  0.00  0.00    -0.475 OA
BRANCH  29  30
ATOM     30  C24 UNL     1     -90.537  63.087  -7.362  0.00  0.00    +0.139 A 
ATOM     31  C25 UNL     1     -90.993  61.967  -8.084  0.00  0.00    +0.037 A 
ATOM     32  C26 UNL     1     -90.197  61.396  -9.081  0.00  0.00    +0.006 A 
ATOM     33  C27 UNL     1     -88.931  61.931  -9.381  0.00  0.00    +0.040 A 
ATOM     34  C29 UNL     1     -88.481  63.048  -8.656  0.00  0.00    +0.006 A 
ATOM     35  C30 UNL     1     -89.278  63.617  -7.660  0.00  0.00    +0.037 A 
BRANCH  33  36
ATOM     36  C28 UNL     1     -88.090  61.328 -10.444  0.00  0.00    +0.208 A 
ATOM     37  N3  UNL     1     -88.167  61.622 -11.760  0.00  0.00    -0.106 NA
ATOM     38  N4  UNL     1     -87.256  60.869 -12.351  0.00  0.00    -0.021 NA
ATOM     39  N5  UNL     1     -86.633  60.136 -11.445  0.00  0.00    -0.021 NA
ATOM     40  N6  UNL     1     -87.130  60.398 -10.248  0.00  0.00    -0.106 NA
ENDBRANCH  33  36
ENDBRANCH  29  30
ENDBRANCH  28  29
ENDBRANCH  27  28
ENDBRANCH  26  27
ENDBRANCH  25  26
ENDBRANCH  24  25
ENDBRANCH   6  24
TORSDOF 11
ENDMDL
MODEL 4
REMARK VINA RESULT:      -6.3      3.283      8.802
REMARK  Name = ./data/4wxx_site_bc02/pdb/l0c2.pdb
REMARK  11 active torsions:
REMARK  status: ('A' for Active; 'I' for Inactive)
REMARK    1  A    between atoms: O1_2  and  C2_3
REMARK    2  A    between atoms: C5_6  and  C6_7
REMARK    3  A    between atoms: N2_9  and  C7_10
REMARK    4  A    between atoms: C19_23  and  O3_24
REMARK    5  A    between atoms: O3_24  and  C20_25
REMARK    6  A    between atoms: C20_25  and  C21_26
REMARK    7  A    between atoms: C21_26  and  C22_27
REMARK    8  A    between atoms: C22_27  and  C23_28
REMARK    9  A    between atoms: C23_28  and  O4_29
REMARK   10  A    between atoms: O4_29  and  C24_30
REMARK   11  A    between atoms: C27_33  and  C28_34
REMARK                            x       y       z     vdW  Elec       q    Type
REMARK                         _______ _______ _______ _____ _____    ______ ____
ROOT
ATOM      1  C2  UNL     1     -93.833  64.115  -9.856  0.00  0.00    +0.172 A 
ATOM      2  C3  UNL     1     -92.924  63.596 -10.793  0.00  0.00    +0.040 A 
ATOM      3  C4  UNL     1     -91.668  64.182 -10.964  0.00  0.00    +0.005 A 
ATOM      4  C5  UNL     1     -91.291  65.308 -10.211  0.00  0.00    +0.019 A 
ATOM      5  C18 UNL     1     -92.211  65.825  -9.277  0.00  0.00    +0.041 A 
ATOM      6  C19 UNL     1     -93.473  65.230  -9.088  0.00  0.00    +0.172 A 
ENDROOT
BRANCH   4   7
ATOM      7  C6  UNL     1     -89.957  65.962 -10.366  0.00  0.00    +0.086 C 
ATOM      8  N1  UNL     1     -88.931  65.294 -10.788  0.00  0.00    -0.171 NA
ATOM      9  N2  UNL     1     -87.818  66.127 -10.879  0.00  0.00    -0.222 N 
ATOM     10  C14 UNL     1     -88.139  67.331 -10.532  0.00  0.00    +0.257 C 
ATOM     11  O2  UNL     1     -87.243  68.399 -10.550  0.00  0.00    -0.270 OA
ATOM     12  C15 UNL     1     -89.579  67.415 -10.118  0.00  0.00    +0.110 C 
ATOM     13  C16 UNL     1     -90.330  68.390 -11.039  0.00  0.00    +0.015 C 
ATOM     14  C17 UNL     1     -89.658  67.810  -8.632  0.00  0.00    +0.015 C 
BRANCH   9  15
ATOM     15  C7  UNL     1     -86.510  65.653 -11.353  0.00  0.00    +0.108 C 
ATOM     16  C8  UNL     1     -86.304  64.181 -10.930  0.00  0.00    +0.024 C 
ATOM     17  C9  UNL     1     -84.841  63.723 -10.977  0.00  0.00    +0.002 C 
ATOM     18  C10 UNL     1     -84.196  63.854 -12.366  0.00  0.00    +0.000 C 
ATOM     19  C11 UNL     1     -83.835  65.309 -12.704  0.00  0.00    +0.000 C 
ATOM     20  C12 UNL     1     -84.962  66.103 -13.391  0.00  0.00    +0.002 C 
ATOM     21  C13 UNL     1     -86.392  65.832 -12.885  0.00  0.00    +0.024 C 
ENDBRANCH   9  15
ENDBRANCH   4   7
BRANCH   1  23
ATOM     22  C1  UNL     1     -95.354  62.383  -8.877  0.00  0.00    +0.253 C 
ATOM     23  O1  UNL     1     -95.102  63.548  -9.657  0.00  0.00    -0.468 OA
ENDBRANCH   1  23
BRANCH   6  24
ATOM     24  O3  UNL     1     -94.402  65.712  -8.149  0.00  0.00    -0.472 OA
BRANCH  24  25
ATOM     25  C20 UNL     1     -94.162  65.892  -6.753  0.00  0.00    +0.206 C 
BRANCH  25  26
ATOM     26  C21 UNL     1     -94.048  64.535  -6.045  0.00  0.00    +0.051 C 
BRANCH  26  27
ATOM     27  C22 UNL     1     -92.855  64.476  -5.078  0.00  0.00    +0.051 C 
BRANCH  27  28
ATOM     28  C23 UNL     1     -91.570  63.991  -5.760  0.00  0.00    +0.206 C 
BRANCH  28  29
ATOM     29  O4  UNL     1     -91.867  62.968  -6.711  0.00  0.00    -0.475 OA
BRANCH  29  30
ATOM     30  C24 UNL     1     -90.976  62.465  -7.672  0.00  0.00    +0.139 A 
ATOM     31  C25 UNL     1     -91.301  61.397  -8.530  0.00  0.00    +0.037 A 
ATOM     32  C26 UNL     1     -90.375  60.940  -9.472  0.00  0.00    +0.006 A 
ATOM     33  C27 UNL     1     -89.107  61.540  -9.580  0.00  0.00    +0.040 A 
ATOM     34  C29 UNL     1     -88.788  62.604  -8.720  0.00  0.00    +0.006 A 
ATOM     35  C30 UNL     1     -89.715  63.059  -7.779  0.00  0.00    +0.037 A 
BRANCH  33  36
ATOM     36  C28 UNL     1     -88.128  61.059 -10.586  0.00  0.00    +0.208 A 
ATOM     37  N3  UNL     1     -88.215  61.260 -11.919  0.00  0.00    -0.106 NA
ATOM     38  N4  UNL     1     -87.154  60.671 -12.442  0.00  0.00    -0.021 NA
ATOM     39  N5  UNL     1     -86.432  60.126 -11.479  0.00  0.00    -0.021 NA
ATOM     40  N6  UNL     1     -87.011  60.349 -10.312  0.00  0.00    -0.106 NA
ENDBRANCH  33  36
ENDBRANCH  29  30
ENDBRANCH  28  29
ENDBRANCH  27  28
ENDBRANCH  26  27
ENDBRANCH  25  26
ENDBRANCH  24  25
ENDBRANCH   6  24
TORSDOF 11
ENDMDL
MODEL 5
REMARK VINA RESULT:      -5.9      3.133      6.586
REMARK  Name = ./data/4wxx_site_bc02/pdb/l0c2.pdb
REMARK  11 active torsions:
REMARK  status: ('A' for Active; 'I' for Inactive)
REMARK    1  A    between atoms: O1_2  and  C2_3
REMARK    2  A    between atoms: C5_6  and  C6_7
REMARK    3  A    between atoms: N2_9  and  C7_10
REMARK    4  A    between atoms: C19_23  and  O3_24
REMARK    5  A    between atoms: O3_24  and  C20_25
REMARK    6  A    between atoms: C20_25  and  C21_26
REMARK    7  A    between atoms: C21_26  and  C22_27
REMARK    8  A    between atoms: C22_27  and  C23_28
REMARK    9  A    between atoms: C23_28  and  O4_29
REMARK   10  A    between atoms: O4_29  and  C24_30
REMARK   11  A    between atoms: C27_33  and  C28_34
REMARK                            x       y       z     vdW  Elec       q    Type
REMARK                         _______ _______ _______ _____ _____    ______ ____
ROOT
ATOM      1  C2  UNL     1     -89.283  60.548 -12.517  0.00  0.00    +0.172 A 
ATOM      2  C3  UNL     1     -89.802  61.414 -13.494  0.00  0.00    +0.040 A 
ATOM      3  C4  UNL     1     -89.813  62.794 -13.286  0.00  0.00    +0.005 A 
ATOM      4  C5  UNL     1     -89.317  63.346 -12.093  0.00  0.00    +0.019 A 
ATOM      5  C18 UNL     1     -88.802  62.471 -11.116  0.00  0.00    +0.041 A 
ATOM      6  C19 UNL     1     -88.773  61.079 -11.325  0.00  0.00    +0.172 A 
ENDROOT
BRANCH   4   7
ATOM      7  C6  UNL     1     -89.313  64.818 -11.834  0.00  0.00    +0.086 C 
ATOM      8  N1  UNL     1     -89.777  65.302 -10.726  0.00  0.00    -0.171 NA
ATOM      9  N2  UNL     1     -89.633  66.688 -10.709  0.00  0.00    -0.222 N 
ATOM     10  C14 UNL     1     -89.062  67.086 -11.799  0.00  0.00    +0.257 C 
ATOM     11  O2  UNL     1     -88.755  68.420 -12.061  0.00  0.00    -0.270 OA
ATOM     12  C15 UNL     1     -88.782  65.935 -12.721  0.00  0.00    +0.110 C 
ATOM     13  C16 UNL     1     -87.270  65.825 -12.974  0.00  0.00    +0.015 C 
ATOM     14  C17 UNL     1     -89.596  66.112 -14.015  0.00  0.00    +0.015 C 
BRANCH   9  15
ATOM     15  C7  UNL     1     -90.049  67.513  -9.566  0.00  0.00    +0.108 C 
ATOM     16  C8  UNL     1     -91.083  66.743  -8.715  0.00  0.00    +0.024 C 
ATOM     17  C9  UNL     1     -91.900  67.638  -7.774  0.00  0.00    +0.002 C 
ATOM     18  C10 UNL     1     -91.043  68.431  -6.775  0.00  0.00    +0.000 C 
ATOM     19  C11 UNL     1     -90.340  69.628  -7.435  0.00  0.00    +0.000 C 
ATOM     20  C12 UNL     1     -88.958  69.306  -8.034  0.00  0.00    +0.002 C 
ATOM     21  C13 UNL     1     -88.819  67.938  -8.729  0.00  0.00    +0.024 C 
ENDBRANCH   9  15
ENDBRANCH   4   7
BRANCH   1  23
ATOM     22  C1  UNL     1     -90.378  58.364 -13.067  0.00  0.00    +0.253 C 
ATOM     23  O1  UNL     1     -89.254  59.156 -12.695  0.00  0.00    -0.468 OA
ENDBRANCH   1  23
BRANCH   6  24
ATOM     24  O3  UNL     1     -88.247  60.184 -10.376  0.00  0.00    -0.472 OA
BRANCH  24  25
ATOM     25  C20 UNL     1     -88.852  59.837  -9.130  0.00  0.00    +0.206 C 
BRANCH  25  26
ATOM     26  C21 UNL     1     -90.022  58.867  -9.349  0.00  0.00    +0.051 C 
BRANCH  26  27
ATOM     27  C22 UNL     1     -91.355  59.429  -8.830  0.00  0.00    +0.051 C 
BRANCH  27  28
ATOM     28  C23 UNL     1     -92.109  60.230  -9.897  0.00  0.00    +0.206 C 
BRANCH  28  29
ATOM     29  O4  UNL     1     -91.861  61.627  -9.738  0.00  0.00    -0.475 OA
BRANCH  29  30
ATOM     30  C24 UNL     1     -91.982  62.345  -8.537  0.00  0.00    +0.139 A 
ATOM     31  C25 UNL     1     -90.881  62.929  -7.883  0.00  0.00    +0.037 A 
ATOM     32  C26 UNL     1     -91.061  63.637  -6.691  0.00  0.00    +0.006 A 
ATOM     33  C27 UNL     1     -92.343  63.780  -6.130  0.00  0.00    +0.040 A 
ATOM     34  C29 UNL     1     -93.438  63.194  -6.788  0.00  0.00    +0.006 A 
ATOM     35  C30 UNL     1     -93.256  62.486  -7.979  0.00  0.00    +0.037 A 
BRANCH  33  36
ATOM     36  C28 UNL     1     -92.535  64.539  -4.869  0.00  0.00    +0.208 A 
ATOM     37  N3  UNL     1     -93.132  64.062  -3.755  0.00  0.00    -0.106 NA
ATOM     38  N4  UNL     1     -93.099  65.051  -2.878  0.00  0.00    -0.021 NA
ATOM     39  N5  UNL     1     -92.506  66.100  -3.418  0.00  0.00    -0.021 NA
ATOM     40  N6  UNL     1     -92.144  65.814  -4.657  0.00  0.00    -0.106 NA
ENDBRANCH  33  36
ENDBRANCH  29  30
ENDBRANCH  28  29
ENDBRANCH  27  28
ENDBRANCH  26  27
ENDBRANCH  25  26
ENDBRANCH  24  25
ENDBRANCH   6  24
TORSDOF 11
ENDMDL
MODEL 6
REMARK VINA RESULT:      -5.8      3.504      8.645
REMARK  Name = ./data/4wxx_site_bc02/pdb/l0c2.pdb
REMARK  11 active torsions:
REMARK  status: ('A' for Active; 'I' for Inactive)
REMARK    1  A    between atoms: O1_2  and  C2_3
REMARK    2  A    between atoms: C5_6  and  C6_7
REMARK    3  A    between atoms: N2_9  and  C7_10
REMARK    4  A    between atoms: C19_23  and  O3_24
REMARK    5  A    between atoms: O3_24  and  C20_25
REMARK    6  A    between atoms: C20_25  and  C21_26
REMARK    7  A    between atoms: C21_26  and  C22_27
REMARK    8  A    between atoms: C22_27  and  C23_28
REMARK    9  A    between atoms: C23_28  and  O4_29
REMARK   10  A    between atoms: O4_29  and  C24_30
REMARK   11  A    between atoms: C27_33  and  C28_34
REMARK                            x       y       z     vdW  Elec       q    Type
REMARK                         _______ _______ _______ _____ _____    ______ ____
ROOT
ATOM      1  C2  UNL     1     -92.260  66.760  -4.624  0.00  0.00    +0.172 A 
ATOM      2  C3  UNL     1     -91.438  67.898  -4.687  0.00  0.00    +0.040 A 
ATOM      3  C4  UNL     1     -91.083  68.450  -5.919  0.00  0.00    +0.005 A 
ATOM      4  C5  UNL     1     -91.531  67.876  -7.121  0.00  0.00    +0.019 A 
ATOM      5  C18 UNL     1     -92.351  66.732  -7.049  0.00  0.00    +0.041 A 
ATOM      6  C19 UNL     1     -92.726  66.178  -5.810  0.00  0.00    +0.172 A 
ENDROOT
BRANCH   4   7
ATOM      7  C6  UNL     1     -91.171  68.438  -8.457  0.00  0.00    +0.086 C 
ATOM      8  N1  UNL     1     -90.397  67.789  -9.268  0.00  0.00    -0.171 NA
ATOM      9  N2  UNL     1     -90.239  68.501 -10.456  0.00  0.00    -0.222 N 
ATOM     10  C14 UNL     1     -90.926  69.596 -10.408  0.00  0.00    +0.257 C 
ATOM     11  O2  UNL     1     -90.993  70.506 -11.463  0.00  0.00    -0.270 OA
ATOM     12  C15 UNL     1     -91.627  69.746  -9.089  0.00  0.00    +0.110 C 
ATOM     13  C16 UNL     1     -93.147  69.801  -9.309  0.00  0.00    +0.015 C 
ATOM     14  C17 UNL     1     -91.079  70.987  -8.362  0.00  0.00    +0.015 C 
BRANCH   9  15
ATOM     15  C7  UNL     1     -89.432  68.001 -11.578  0.00  0.00    +0.108 C 
ATOM     16  C8  UNL     1     -88.205  67.233 -11.036  0.00  0.00    +0.024 C 
ATOM     17  C9  UNL     1     -87.086  67.050 -12.068  0.00  0.00    +0.002 C 
ATOM     18  C10 UNL     1     -87.526  66.297 -13.333  0.00  0.00    +0.000 C 
ATOM     19  C11 UNL     1     -88.359  67.182 -14.275  0.00  0.00    +0.000 C 
ATOM     20  C12 UNL     1     -89.873  67.161 -13.996  0.00  0.00    +0.002 C 
ATOM     21  C13 UNL     1     -90.293  67.122 -12.514  0.00  0.00    +0.024 C 
ENDBRANCH   9  15
ENDBRANCH   4   7
BRANCH   1  23
ATOM     22  C1  UNL     1     -91.841  65.259  -2.663  0.00  0.00    +0.253 C 
ATOM     23  O1  UNL     1     -92.638  66.181  -3.402  0.00  0.00    -0.468 OA
ENDBRANCH   1  23
BRANCH   6  24
ATOM     24  O3  UNL     1     -93.559  65.050  -5.709  0.00  0.00    -0.472 OA
BRANCH  24  25
ATOM     25  C20 UNL     1     -93.129  63.689  -5.741  0.00  0.00    +0.206 C 
BRANCH  25  26
ATOM     26  C21 UNL     1     -93.571  63.012  -7.046  0.00  0.00    +0.051 C 
BRANCH  26  27
ATOM     27  C22 UNL     1     -92.411  62.838  -8.039  0.00  0.00    +0.051 C 
BRANCH  27  28
ATOM     28  C23 UNL     1     -92.563  63.724  -9.281  0.00  0.00    +0.206 C 
BRANCH  28  29
ATOM     29  O4  UNL     1     -91.439  64.594  -9.413  0.00  0.00    -0.475 OA
BRANCH  29  30
ATOM     30  C24 UNL     1     -90.145  64.200  -9.791  0.00  0.00    +0.139 A 
ATOM     31  C25 UNL     1     -89.057  64.195  -8.897  0.00  0.00    +0.037 A 
ATOM     32  C26 UNL     1     -87.790  63.788  -9.328  0.00  0.00    +0.006 A 
ATOM     33  C27 UNL     1     -87.584  63.377 -10.656  0.00  0.00    +0.040 A 
ATOM     34  C29 UNL     1     -88.673  63.385 -11.544  0.00  0.00    +0.006 A 
ATOM     35  C30 UNL     1     -89.938  63.792 -11.112  0.00  0.00    +0.037 A 
BRANCH  33  36
ATOM     36  C28 UNL     1     -86.241  62.938 -11.111  0.00  0.00    +0.208 A 
ATOM     37  N3  UNL     1     -85.542  61.904 -10.594  0.00  0.00    -0.106 NA
ATOM     38  N4  UNL     1     -84.409  61.860 -11.275  0.00  0.00    -0.021 NA
ATOM     39  N5  UNL     1     -84.400  62.822 -12.179  0.00  0.00    -0.021 NA
ATOM     40  N6  UNL     1     -85.525  63.512 -12.102  0.00  0.00    -0.106 NA
ENDBRANCH  33  36
ENDBRANCH  29  30
ENDBRANCH  28  29
ENDBRANCH  27  28
ENDBRANCH  26  27
ENDBRANCH  25  26
ENDBRANCH  24  25
ENDBRANCH   6  24
TORSDOF 11
ENDMDL
MODEL 7
REMARK VINA RESULT:      -5.3      2.607      7.503
REMARK  Name = ./data/4wxx_site_bc02/pdb/l0c2.pdb
REMARK  11 active torsions:
REMARK  status: ('A' for Active; 'I' for Inactive)
REMARK    1  A    between atoms: O1_2  and  C2_3
REMARK    2  A    between atoms: C5_6  and  C6_7
REMARK    3  A    between atoms: N2_9  and  C7_10
REMARK    4  A    between atoms: C19_23  and  O3_24
REMARK    5  A    between atoms: O3_24  and  C20_25
REMARK    6  A    between atoms: C20_25  and  C21_26
REMARK    7  A    between atoms: C21_26  and  C22_27
REMARK    8  A    between atoms: C22_27  and  C23_28
REMARK    9  A    between atoms: C23_28  and  O4_29
REMARK   10  A    between atoms: O4_29  and  C24_30
REMARK   11  A    between atoms: C27_33  and  C28_34
REMARK                            x       y       z     vdW  Elec       q    Type
REMARK                         _______ _______ _______ _____ _____    ______ ____
ROOT
ATOM      1  C2  UNL     1     -90.163  63.716 -11.640  0.00  0.00    +0.172 A 
ATOM      2  C3  UNL     1     -90.696  64.908 -12.159  0.00  0.00    +0.040 A 
ATOM      3  C4  UNL     1     -90.082  66.134 -11.897  0.00  0.00    +0.005 A 
ATOM      4  C5  UNL     1     -88.925  66.204 -11.103  0.00  0.00    +0.019 A 
ATOM      5  C18 UNL     1     -88.399  65.005 -10.582  0.00  0.00    +0.041 A 
ATOM      6  C19 UNL     1     -89.004  63.763 -10.855  0.00  0.00    +0.172 A 
ENDROOT
BRANCH   4   7
ATOM      7  C6  UNL     1     -88.240  67.497 -10.800  0.00  0.00    +0.086 C 
ATOM      8  N1  UNL     1     -88.669  68.275  -9.857  0.00  0.00    -0.171 NA
ATOM      9  N2  UNL     1     -87.849  69.397  -9.748  0.00  0.00    -0.222 N 
ATOM     10  C14 UNL     1     -86.888  69.326 -10.611  0.00  0.00    +0.257 C 
ATOM     11  O2  UNL     1     -85.887  70.289 -10.724  0.00  0.00    -0.270 OA
ATOM     12  C15 UNL     1     -87.000  68.089 -11.454  0.00  0.00    +0.110 C 
ATOM     13  C16 UNL     1     -85.752  67.212 -11.262  0.00  0.00    +0.015 C 
ATOM     14  C17 UNL     1     -87.230  68.493 -12.921  0.00  0.00    +0.015 C 
BRANCH   9  15
ATOM     15  C7  UNL     1     -88.074  70.447  -8.746  0.00  0.00    +0.108 C 
ATOM     16  C8  UNL     1     -89.548  70.422  -8.284  0.00  0.00    +0.024 C 
ATOM     17  C9  UNL     1     -90.002  71.713  -7.592  0.00  0.00    +0.002 C 
ATOM     18  C10 UNL     1     -89.179  72.068  -6.344  0.00  0.00    +0.000 C 
ATOM     19  C11 UNL     1     -87.801  72.649  -6.702  0.00  0.00    +0.000 C 
ATOM     20  C12 UNL     1     -86.690  71.597  -6.871  0.00  0.00    +0.002 C 
ATOM     21  C13 UNL     1     -87.097  70.279  -7.557  0.00  0.00    +0.024 C 
ENDBRANCH   9  15
ENDBRANCH   4   7
BRANCH   1  23
ATOM     22  C1  UNL     1     -92.094  62.279 -12.331  0.00  0.00    +0.253 C 
ATOM     23  O1  UNL     1     -90.753  62.467 -11.887  0.00  0.00    -0.468 OA
ENDBRANCH   1  23
BRANCH   6  24
ATOM     24  O3  UNL     1     -88.489  62.549 -10.366  0.00  0.00    -0.472 OA
BRANCH  24  25
ATOM     25  C20 UNL     1     -87.434  61.790 -10.958  0.00  0.00    +0.206 C 
BRANCH  25  26
ATOM     26  C21 UNL     1     -87.521  60.318 -10.531  0.00  0.00    +0.051 C 
BRANCH  26  27
ATOM     27  C22 UNL     1     -88.904  59.709 -10.805  0.00  0.00    +0.051 C 
BRANCH  27  28
ATOM     28  C23 UNL     1     -89.672  59.390  -9.515  0.00  0.00    +0.206 C 
BRANCH  28  29
ATOM     29  O4  UNL     1     -90.954  60.017  -9.532  0.00  0.00    -0.475 OA
BRANCH  29  30
ATOM     30  C24 UNL     1     -91.339  61.106  -8.734  0.00  0.00    +0.139 A 
ATOM     31  C25 UNL     1     -92.664  61.580  -8.676  0.00  0.00    +0.037 A 
ATOM     32  C26 UNL     1     -92.991  62.666  -7.859  0.00  0.00    +0.006 A 
ATOM     33  C27 UNL     1     -92.006  63.300  -7.082  0.00  0.00    +0.040 A 
ATOM     34  C29 UNL     1     -90.685  62.824  -7.145  0.00  0.00    +0.006 A 
ATOM     35  C30 UNL     1     -90.360  61.738  -7.962  0.00  0.00    +0.037 A 
BRANCH  33  36
ATOM     36  C28 UNL     1     -92.355  64.449  -6.209  0.00  0.00    +0.208 A 
ATOM     37  N3  UNL     1     -92.274  65.750  -6.562  0.00  0.00    -0.106 NA
ATOM     38  N4  UNL     1     -92.669  66.435  -5.503  0.00  0.00    -0.021 NA
ATOM     39  N5  UNL     1     -92.986  65.600  -4.530  0.00  0.00    -0.021 NA
ATOM     40  N6  UNL     1     -92.800  64.356  -4.937  0.00  0.00    -0.106 NA
ENDBRANCH  33  36
ENDBRANCH  29  30
ENDBRANCH  28  29
ENDBRANCH  27  28
ENDBRANCH  26  27
ENDBRANCH  25  26
ENDBRANCH  24  25
ENDBRANCH   6  24
TORSDOF 11
ENDMDL
MODEL 8
REMARK VINA RESULT:      -5.3      3.738      9.301
REMARK  Name = ./data/4wxx_site_bc02/pdb/l0c2.pdb
REMARK  11 active torsions:
REMARK  status: ('A' for Active; 'I' for Inactive)
REMARK    1  A    between atoms: O1_2  and  C2_3
REMARK    2  A    between atoms: C5_6  and  C6_7
REMARK    3  A    between atoms: N2_9  and  C7_10
REMARK    4  A    between atoms: C19_23  and  O3_24
REMARK    5  A    between atoms: O3_24  and  C20_25
REMARK    6  A    between atoms: C20_25  and  C21_26
REMARK    7  A    between atoms: C21_26  and  C22_27
REMARK    8  A    between atoms: C22_27  and  C23_28
REMARK    9  A    between atoms: C23_28  and  O4_29
REMARK   10  A    between atoms: O4_29  and  C24_30
REMARK   11  A    between atoms: C27_33  and  C28_34
REMARK                            x       y       z     vdW  Elec       q    Type
REMARK                         _______ _______ _______ _____ _____    ______ ____
ROOT
ATOM      1  C2  UNL     1     -92.145  65.162  -4.774  0.00  0.00    +0.172 A 
ATOM      2  C3  UNL     1     -91.932  66.499  -4.401  0.00  0.00    +0.040 A 
ATOM      3  C4  UNL     1     -91.909  67.510  -5.364  0.00  0.00    +0.005 A 
ATOM      4  C5  UNL     1     -92.087  67.211  -6.725  0.00  0.00    +0.019 A 
ATOM      5  C18 UNL     1     -92.295  65.867  -7.092  0.00  0.00    +0.041 A 
ATOM      6  C19 UNL     1     -92.336  64.844  -6.126  0.00  0.00    +0.172 A 
ENDROOT
BRANCH   4   7
ATOM      7  C6  UNL     1     -92.068  68.266  -7.784  0.00  0.00    +0.086 C 
ATOM      8  N1  UNL     1     -91.256  69.273  -7.708  0.00  0.00    -0.171 NA
ATOM      9  N2  UNL     1     -91.404  70.095  -8.823  0.00  0.00    -0.222 N 
ATOM     10  C14 UNL     1     -92.298  69.603  -9.618  0.00  0.00    +0.257 C 
ATOM     11  O2  UNL     1     -92.646  70.187 -10.836  0.00  0.00    -0.270 OA
ATOM     12  C15 UNL     1     -92.894  68.344  -9.060  0.00  0.00    +0.110 C 
ATOM     13  C16 UNL     1     -92.624  67.170 -10.015  0.00  0.00    +0.015 C 
ATOM     14  C17 UNL     1     -94.393  68.567  -8.791  0.00  0.00    +0.015 C 
BRANCH   9  15
ATOM     15  C7  UNL     1     -90.596  71.306  -9.027  0.00  0.00    +0.108 C 
ATOM     16  C8  UNL     1     -91.358  72.538  -8.488  0.00  0.00    +0.024 C 
ATOM     17  C9  UNL     1     -90.832  73.874  -9.025  0.00  0.00    +0.002 C 
ATOM     18  C10 UNL     1     -89.349  74.128  -8.711  0.00  0.00    +0.000 C 
ATOM     19  C11 UNL     1     -88.415  73.305  -9.613  0.00  0.00    +0.000 C 
ATOM     20  C12 UNL     1     -88.069  71.907  -9.067  0.00  0.00    +0.002 C 
ATOM     21  C13 UNL     1     -89.209  71.151  -8.360  0.00  0.00    +0.024 C 
ENDBRANCH   9  15
ENDBRANCH   4   7
BRANCH   1  23
ATOM     22  C1  UNL     1     -93.291  63.823  -2.996  0.00  0.00    +0.253 C 
ATOM     23  O1  UNL     1     -92.177  64.122  -3.832  0.00  0.00    -0.468 OA
ENDBRANCH   1  23
BRANCH   6  24
ATOM     24  O3  UNL     1     -92.562  63.497  -6.461  0.00  0.00    -0.472 OA
BRANCH  24  25
ATOM     25  C20 UNL     1     -91.838  62.746  -7.435  0.00  0.00    +0.206 C 
BRANCH  25  26
ATOM     26  C21 UNL     1     -92.797  61.923  -8.307  0.00  0.00    +0.051 C 
BRANCH  26  27
ATOM     27  C22 UNL     1     -92.169  61.519  -9.650  0.00  0.00    +0.051 C 
BRANCH  27  28
ATOM     28  C23 UNL     1     -92.452  60.056 -10.013  0.00  0.00    +0.206 C 
BRANCH  28  29
ATOM     29  O4  UNL     1     -91.293  59.254  -9.787  0.00  0.00    -0.475 OA
BRANCH  29  30
ATOM     30  C24 UNL     1     -89.988  59.575 -10.195  0.00  0.00    +0.139 A 
ATOM     31  C25 UNL     1     -89.115  60.359  -9.415  0.00  0.00    +0.037 A 
ATOM     32  C26 UNL     1     -87.824  60.643  -9.869  0.00  0.00    +0.006 A 
ATOM     33  C27 UNL     1     -87.375  60.149 -11.107  0.00  0.00    +0.040 A 
ATOM     34  C29 UNL     1     -88.251  59.369 -11.881  0.00  0.00    +0.006 A 
ATOM     35  C30 UNL     1     -89.542  59.086 -11.426  0.00  0.00    +0.037 A 
BRANCH  33  36
ATOM     36  C28 UNL     1     -86.002  60.445 -11.585  0.00  0.00    +0.208 A 
ATOM     37  N3  UNL     1     -85.115  59.526 -12.027  0.00  0.00    -0.106 NA
ATOM     38  N4  UNL     1     -84.026  60.203 -12.347  0.00  0.00    -0.021 NA
ATOM     39  N5  UNL     1     -84.222  61.490 -12.118  0.00  0.00    -0.021 NA
ATOM     40  N6  UNL     1     -85.442  61.673 -11.642  0.00  0.00    -0.106 NA
ENDBRANCH  33  36
ENDBRANCH  29  30
ENDBRANCH  28  29
ENDBRANCH  27  28
ENDBRANCH  26  27
ENDBRANCH  25  26
ENDBRANCH  24  25
ENDBRANCH   6  24
TORSDOF 11
ENDMDL
MODEL 9
REMARK VINA RESULT:      -4.9      3.365      9.701
REMARK  Name = ./data/4wxx_site_bc02/pdb/l0c2.pdb
REMARK  11 active torsions:
REMARK  status: ('A' for Active; 'I' for Inactive)
REMARK    1  A    between atoms: O1_2  and  C2_3
REMARK    2  A    between atoms: C5_6  and  C6_7
REMARK    3  A    between atoms: N2_9  and  C7_10
REMARK    4  A    between atoms: C19_23  and  O3_24
REMARK    5  A    between atoms: O3_24  and  C20_25
REMARK    6  A    between atoms: C20_25  and  C21_26
REMARK    7  A    between atoms: C21_26  and  C22_27
REMARK    8  A    between atoms: C22_27  and  C23_28
REMARK    9  A    between atoms: C23_28  and  O4_29
REMARK   10  A    between atoms: O4_29  and  C24_30
REMARK   11  A    between atoms: C27_33  and  C28_34
REMARK                            x       y       z     vdW  Elec       q    Type
REMARK                         _______ _______ _______ _____ _____    ______ ____
ROOT
ATOM      1  C2  UNL     1     -92.422  65.074  -5.901  0.00  0.00    +0.172 A 
ATOM      2  C3  UNL     1     -92.460  66.361  -5.339  0.00  0.00    +0.040 A 
ATOM      3  C4  UNL     1     -92.010  67.466  -6.064  0.00  0.00    +0.005 A 
ATOM      4  C5  UNL     1     -91.500  67.314  -7.365  0.00  0.00    +0.019 A 
ATOM      5  C18 UNL     1     -91.461  66.018  -7.919  0.00  0.00    +0.041 A 
ATOM      6  C19 UNL     1     -91.928  64.902  -7.200  0.00  0.00    +0.172 A 
ENDROOT
BRANCH   4   7
ATOM      7  C6  UNL     1     -91.008  68.471  -8.171  0.00  0.00    +0.086 C 
ATOM      8  N1  UNL     1     -89.904  69.076  -7.866  0.00  0.00    -0.171 NA
ATOM      9  N2  UNL     1     -89.645  70.095  -8.780  0.00  0.00    -0.222 N 
ATOM     10  C14 UNL     1     -90.575  70.129  -9.678  0.00  0.00    +0.257 C 
ATOM     11  O2  UNL     1     -90.577  71.024 -10.747  0.00  0.00    -0.270 OA
ATOM     12  C15 UNL     1     -91.629  69.093  -9.414  0.00  0.00    +0.110 C 
ATOM     13  C16 UNL     1     -91.702  68.111 -10.595  0.00  0.00    +0.015 C 
ATOM     14  C17 UNL     1     -92.970  69.793  -9.130  0.00  0.00    +0.015 C 
BRANCH   9  15
ATOM     15  C7  UNL     1     -88.446  70.942  -8.705  0.00  0.00    +0.108 C 
ATOM     16  C8  UNL     1     -87.881  70.918  -7.266  0.00  0.00    +0.024 C 
ATOM     17  C9  UNL     1     -86.920  72.074  -6.960  0.00  0.00    +0.002 C 
ATOM     18  C10 UNL     1     -85.698  72.127  -7.890  0.00  0.00    +0.000 C 
ATOM     19  C11 UNL     1     -86.049  72.680  -9.280  0.00  0.00    +0.000 C 
ATOM     20  C12 UNL     1     -86.504  71.614 -10.294  0.00  0.00    +0.002 C 
ATOM     21  C13 UNL     1     -87.394  70.484  -9.742  0.00  0.00    +0.024 C 
ENDBRANCH   9  15
ENDBRANCH   4   7
BRANCH   1  23
ATOM     22  C1  UNL     1     -94.184  63.401  -5.295  0.00  0.00    +0.253 C 
ATOM     23  O1  UNL     1     -92.870  63.942  -5.201  0.00  0.00    -0.468 OA
ENDBRANCH   1  23
BRANCH   6  24
ATOM     24  O3  UNL     1     -91.919  63.602  -7.736  0.00  0.00    -0.472 OA
BRANCH  24  25
ATOM     25  C20 UNL     1     -90.777  62.753  -7.850  0.00  0.00    +0.206 C 
BRANCH  25  26
ATOM     26  C21 UNL     1     -89.780  63.321  -8.870  0.00  0.00    +0.051 C 
BRANCH  26  27
ATOM     27  C22 UNL     1     -88.490  62.492  -8.954  0.00  0.00    +0.051 C 
BRANCH  27  28
ATOM     28  C23 UNL     1     -87.323  63.282  -9.561  0.00  0.00    +0.206 C 
BRANCH  28  29
ATOM     29  O4  UNL     1     -87.202  62.998 -10.954  0.00  0.00    -0.475 OA
BRANCH  29  30
ATOM     30  C24 UNL     1     -87.557  61.789 -11.573  0.00  0.00    +0.139 A 
ATOM     31  C25 UNL     1     -86.700  60.672 -11.615  0.00  0.00    +0.037 A 
ATOM     32  C26 UNL     1     -87.108  59.491 -12.242  0.00  0.00    +0.006 A 
ATOM     33  C27 UNL     1     -88.380  59.398 -12.836  0.00  0.00    +0.040 A 
ATOM     34  C29 UNL     1     -89.230  60.516 -12.791  0.00  0.00    +0.006 A 
ATOM     35  C30 UNL     1     -88.820  61.696 -12.165  0.00  0.00    +0.037 A 
BRANCH  33  36
ATOM     36  C28 UNL     1     -88.816  58.141 -13.493  0.00  0.00    +0.208 A 
ATOM     37  N3  UNL     1     -90.096  57.806 -13.765  0.00  0.00    -0.106 NA
ATOM     38  N4  UNL     1     -90.042  56.618 -14.343  0.00  0.00    -0.021 NA
ATOM     39  N5  UNL     1     -88.783  56.227 -14.431  0.00  0.00    -0.021 NA
ATOM     40  N6  UNL     1     -87.995  57.152 -13.910  0.00  0.00    -0.106 NA
ENDBRANCH  33  36
ENDBRANCH  29  30
ENDBRANCH  28  29
ENDBRANCH  27  28
ENDBRANCH  26  27
ENDBRANCH  25  26
ENDBRANCH  24  25
ENDBRANCH   6  24
TORSDOF 11
ENDMDL
