MODEL 1
REMARK VINA RESULT:       3.5      0.000      0.000
REMARK  Name = ./data/4wxx_site_bc02/pdb/l1c2.pdb
REMARK  11 active torsions:
REMARK  status: ('A' for Active; 'I' for Inactive)
REMARK    1  A    between atoms: O1_2  and  C2_3
REMARK    2  A    between atoms: C5_6  and  C6_7
REMARK    3  A    between atoms: N2_9  and  C7_10
REMARK    4  A    between atoms: C22_26  and  O3_27
REMARK    5  A    between atoms: O3_27  and  C23_28
REMARK    6  A    between atoms: C23_28  and  C24_29
REMARK    7  A    between atoms: C24_29  and  C25_30
REMARK    8  A    between atoms: C25_30  and  C26_31
REMARK    9  A    between atoms: C26_31  and  O4_32
REMARK   10  A    between atoms: O4_32  and  C27_33
REMARK   11  A    between atoms: C30_36  and  C31_37
REMARK                            x       y       z     vdW  Elec       q    Type
REMARK                         _______ _______ _______ _____ _____    ______ ____
ROOT
ATOM      1  C2  UNL     1     -80.319  50.559   4.606  0.00  0.00    +0.172 A 
ATOM      2  C3  UNL     1     -80.239  50.964   3.259  0.00  0.00    +0.040 A 
ATOM      3  C4  UNL     1     -81.367  50.923   2.439  0.00  0.00    +0.005 A 
ATOM      4  C5  UNL     1     -82.598  50.495   2.953  0.00  0.00    +0.018 A 
ATOM      5  C21 UNL     1     -82.674  50.056   4.284  0.00  0.00    +0.041 A 
ATOM      6  C22 UNL     1     -81.544  50.102   5.122  0.00  0.00    +0.172 A 
ENDROOT
BRANCH   4   7
ATOM      7  C6  UNL     1     -83.815  50.477   2.120  0.00  0.00    +0.079 C 
ATOM      8  N1  UNL     1     -84.398  51.614   1.874  0.00  0.00    -0.172 NA
ATOM      9  N2  UNL     1     -85.442  51.769   0.930  0.00  0.00    -0.222 N 
ATOM     10  C14 UNL     1     -86.051  50.710   0.436  0.00  0.00    +0.253 C 
ATOM     11  O2  UNL     1     -87.063  50.836  -0.517  0.00  0.00    -0.271 OA
ATOM     12  C15 UNL     1     -85.678  49.332   0.926  0.00  0.00    +0.091 C 
ATOM     13  C16 UNL     1     -86.523  48.973   2.164  0.00  0.00    +0.035 C 
ATOM     14  C17 UNL     1     -85.985  47.796   2.931  0.00  0.00    -0.030 C 
ATOM     15  C18 UNL     1     -84.713  47.386   2.833  0.00  0.00    -0.030 C 
ATOM     16  C19 UNL     1     -83.775  47.901   1.775  0.00  0.00    +0.032 C 
ATOM     17  C20 UNL     1     -84.172  49.293   1.240  0.00  0.00    +0.056 C 
BRANCH   9  18
ATOM     18  C7  UNL     1     -85.731  53.149   0.488  0.00  0.00    +0.108 C 
ATOM     19  C8  UNL     1     -85.852  54.113   1.689  0.00  0.00    +0.024 C 
ATOM     20  C9  UNL     1     -86.073  55.580   1.282  0.00  0.00    +0.002 C 
ATOM     21  C10 UNL     1     -87.515  55.840   0.811  0.00  0.00    +0.000 C 
ATOM     22  C11 UNL     1     -87.751  55.619  -0.696  0.00  0.00    +0.000 C 
ATOM     23  C12 UNL     1     -86.988  54.445  -1.339  0.00  0.00    +0.002 C 
ATOM     24  C13 UNL     1     -86.944  53.172  -0.474  0.00  0.00    +0.024 C 
ENDBRANCH   9  18
ENDBRANCH   4   7
BRANCH   1  26
ATOM     25  C1  UNL     1     -78.928  49.635   6.470  0.00  0.00    +0.253 C 
ATOM     26  O1  UNL     1     -79.211  50.607   5.467  0.00  0.00    -0.468 OA
ENDBRANCH   1  26
BRANCH   6  27
ATOM     27  O3  UNL     1     -81.600  49.720   6.474  0.00  0.00    -0.472 OA
BRANCH  27  28
ATOM     28  C23 UNL     1     -82.448  50.316   7.454  0.00  0.00    +0.206 C 
BRANCH  28  29
ATOM     29  C24 UNL     1     -82.999  49.242   8.393  0.00  0.00    +0.051 C 
BRANCH  29  30
ATOM     30  C25 UNL     1     -82.807  49.642   9.863  0.00  0.00    +0.051 C 
BRANCH  30  31
ATOM     31  C26 UNL     1     -83.521  50.962  10.179  0.00  0.00    +0.206 C 
BRANCH  31  32
ATOM     32  O4  UNL     1     -84.917  50.860   9.890  0.00  0.00    -0.475 OA
BRANCH  32  33
ATOM     33  C27 UNL     1     -85.772  51.944   9.618  0.00  0.00    +0.139 A 
ATOM     34  C28 UNL     1     -85.389  53.288   9.801  0.00  0.00    +0.037 A 
ATOM     35  C29 UNL     1     -86.294  54.322   9.545  0.00  0.00    +0.006 A 
ATOM     36  C30 UNL     1     -87.590  54.036   9.087  0.00  0.00    +0.040 A 
ATOM     37  C32 UNL     1     -87.964  52.697   8.891  0.00  0.00    +0.006 A 
ATOM     38  C33 UNL     1     -87.063  51.663   9.154  0.00  0.00    +0.037 A 
BRANCH  36  39
ATOM     39  C31 UNL     1     -88.546  55.131   8.811  0.00  0.00    +0.208 A 
ATOM     40  N3  UNL     1     -89.135  55.366   7.620  0.00  0.00    -0.106 NA
ATOM     41  N4  UNL     1     -89.897  56.430   7.799  0.00  0.00    -0.021 NA
ATOM     42  N5  UNL     1     -89.795  56.843   9.050  0.00  0.00    -0.021 NA
ATOM     43  N6  UNL     1     -88.960  56.055   9.706  0.00  0.00    -0.106 NA
ENDBRANCH  36  39
ENDBRANCH  32  33
ENDBRANCH  31  32
ENDBRANCH  30  31
ENDBRANCH  29  30
ENDBRANCH  28  29
ENDBRANCH  27  28
ENDBRANCH   6  27
TORSDOF 11
ENDMDL
MODEL 2
REMARK VINA RESULT:       4.6      5.471      6.982
REMARK  Name = ./data/4wxx_site_bc02/pdb/l1c2.pdb
REMARK  11 active torsions:
REMARK  status: ('A' for Active; 'I' for Inactive)
REMARK    1  A    between atoms: O1_2  and  C2_3
REMARK    2  A    between atoms: C5_6  and  C6_7
REMARK    3  A    between atoms: N2_9  and  C7_10
REMARK    4  A    between atoms: C22_26  and  O3_27
REMARK    5  A    between atoms: O3_27  and  C23_28
REMARK    6  A    between atoms: C23_28  and  C24_29
REMARK    7  A    between atoms: C24_29  and  C25_30
REMARK    8  A    between atoms: C25_30  and  C26_31
REMARK    9  A    between atoms: C26_31  and  O4_32
REMARK   10  A    between atoms: O4_32  and  C27_33
REMARK   11  A    between atoms: C30_36  and  C31_37
REMARK                            x       y       z     vdW  Elec       q    Type
REMARK                         _______ _______ _______ _____ _____    ______ ____
ROOT
ATOM      1  C2  UNL     1     -80.389  50.574   4.820  0.00  0.00    +0.172 A 
ATOM      2  C3  UNL     1     -80.265  51.028   3.492  0.00  0.00    +0.040 A 
ATOM      3  C4  UNL     1     -81.359  50.989   2.626  0.00  0.00    +0.005 A 
ATOM      4  C5  UNL     1     -82.598  50.513   3.075  0.00  0.00    +0.018 A 
ATOM      5  C21 UNL     1     -82.715  50.025   4.386  0.00  0.00    +0.041 A 
ATOM      6  C22 UNL     1     -81.620  50.069   5.270  0.00  0.00    +0.172 A 
ENDROOT
BRANCH   4   7
ATOM      7  C6  UNL     1     -83.780  50.494   2.194  0.00  0.00    +0.079 C 
ATOM      8  N1  UNL     1     -84.370  51.628   1.947  0.00  0.00    -0.172 NA
ATOM      9  N2  UNL     1     -85.377  51.787   0.965  0.00  0.00    -0.222 N 
ATOM     10  C14 UNL     1     -85.950  50.730   0.426  0.00  0.00    +0.253 C 
ATOM     11  O2  UNL     1     -86.925  50.860  -0.565  0.00  0.00    -0.271 OA
ATOM     12  C15 UNL     1     -85.576  49.347   0.903  0.00  0.00    +0.091 C 
ATOM     13  C16 UNL     1     -86.465  48.951   2.098  0.00  0.00    +0.035 C 
ATOM     14  C17 UNL     1     -85.940  47.766   2.863  0.00  0.00    -0.030 C 
ATOM     15  C18 UNL     1     -84.659  47.377   2.808  0.00  0.00    -0.030 C 
ATOM     16  C19 UNL     1     -83.687  47.927   1.799  0.00  0.00    +0.032 C 
ATOM     17  C20 UNL     1     -84.084  49.323   1.276  0.00  0.00    +0.056 C 
BRANCH   9  18
ATOM     18  C7  UNL     1     -85.670  53.171   0.539  0.00  0.00    +0.108 C 
ATOM     19  C8  UNL     1     -85.794  54.121   1.752  0.00  0.00    +0.024 C 
ATOM     20  C9  UNL     1     -86.018  55.592   1.362  0.00  0.00    +0.002 C 
ATOM     21  C10 UNL     1     -87.461  55.854   0.893  0.00  0.00    +0.000 C 
ATOM     22  C11 UNL     1     -87.694  55.651  -0.617  0.00  0.00    +0.000 C 
ATOM     23  C12 UNL     1     -86.928  54.487  -1.273  0.00  0.00    +0.002 C 
ATOM     24  C13 UNL     1     -86.882  53.203  -0.423  0.00  0.00    +0.024 C 
ENDBRANCH   9  18
ENDBRANCH   4   7
BRANCH   1  26
ATOM     25  C1  UNL     1     -78.843  49.498   6.468  0.00  0.00    +0.253 C 
ATOM     26  O1  UNL     1     -79.316  50.619   5.726  0.00  0.00    -0.468 OA
ENDBRANCH   1  26
BRANCH   6  27
ATOM     27  O3  UNL     1     -81.720  49.639   6.605  0.00  0.00    -0.472 OA
BRANCH  27  28
ATOM     28  C23 UNL     1     -82.394  50.349   7.642  0.00  0.00    +0.206 C 
BRANCH  28  29
ATOM     29  C24 UNL     1     -82.496  49.477   8.893  0.00  0.00    +0.051 C 
BRANCH  29  30
ATOM     30  C25 UNL     1     -81.116  49.270   9.537  0.00  0.00    +0.051 C 
BRANCH  30  31
ATOM     31  C26 UNL     1     -80.499  47.932   9.111  0.00  0.00    +0.206 C 
BRANCH  31  32
ATOM     32  O4  UNL     1     -80.098  47.176  10.255  0.00  0.00    -0.475 OA
BRANCH  32  33
ATOM     33  C27 UNL     1     -79.155  47.589  11.213  0.00  0.00    +0.139 A 
ATOM     34  C28 UNL     1     -79.341  47.413  12.599  0.00  0.00    +0.037 A 
ATOM     35  C29 UNL     1     -78.382  47.874  13.506  0.00  0.00    +0.006 A 
ATOM     36  C30 UNL     1     -77.213  48.503  13.047  0.00  0.00    +0.040 A 
ATOM     37  C32 UNL     1     -77.023  48.663  11.664  0.00  0.00    +0.006 A 
ATOM     38  C33 UNL     1     -77.985  48.210  10.759  0.00  0.00    +0.037 A 
BRANCH  36  39
ATOM     39  C31 UNL     1     -76.195  48.986  14.005  0.00  0.00    +0.208 A 
ATOM     40  N3  UNL     1     -74.985  49.479  13.670  0.00  0.00    -0.106 NA
ATOM     41  N4  UNL     1     -74.391  49.780  14.812  0.00  0.00    -0.021 NA
ATOM     42  N5  UNL     1     -75.195  49.493  15.819  0.00  0.00    -0.021 NA
ATOM     43  N6  UNL     1     -76.327  48.995  15.350  0.00  0.00    -0.106 NA
ENDBRANCH  36  39
ENDBRANCH  32  33
ENDBRANCH  31  32
ENDBRANCH  30  31
ENDBRANCH  29  30
ENDBRANCH  28  29
ENDBRANCH  27  28
ENDBRANCH   6  27
TORSDOF 11
ENDMDL
MODEL 3
REMARK VINA RESULT:       6.3      2.748      8.153
REMARK  Name = ./data/4wxx_site_bc02/pdb/l1c2.pdb
REMARK  11 active torsions:
REMARK  status: ('A' for Active; 'I' for Inactive)
REMARK    1  A    between atoms: O1_2  and  C2_3
REMARK    2  A    between atoms: C5_6  and  C6_7
REMARK    3  A    between atoms: N2_9  and  C7_10
REMARK    4  A    between atoms: C22_26  and  O3_27
REMARK    5  A    between atoms: O3_27  and  C23_28
REMARK    6  A    between atoms: C23_28  and  C24_29
REMARK    7  A    between atoms: C24_29  and  C25_30
REMARK    8  A    between atoms: C25_30  and  C26_31
REMARK    9  A    between atoms: C26_31  and  O4_32
REMARK   10  A    between atoms: O4_32  and  C27_33
REMARK   11  A    between atoms: C30_36  and  C31_37
REMARK                            x       y       z     vdW  Elec       q    Type
REMARK                         _______ _______ _______ _____ _____    ______ ____
ROOT
ATOM      1  C2  UNL     1     -81.109  50.973   3.722  0.00  0.00    +0.172 A 
ATOM      2  C3  UNL     1     -80.915  51.991   4.677  0.00  0.00    +0.040 A 
ATOM      3  C4  UNL     1     -81.511  51.903   5.936  0.00  0.00    +0.005 A 
ATOM      4  C5  UNL     1     -82.294  50.790   6.270  0.00  0.00    +0.018 A 
ATOM      5  C21 UNL     1     -82.520  49.793   5.309  0.00  0.00    +0.041 A 
ATOM      6  C22 UNL     1     -81.916  49.868   4.039  0.00  0.00    +0.172 A 
ENDROOT
BRANCH   4   7
ATOM      7  C6  UNL     1     -82.904  50.652   7.605  0.00  0.00    +0.079 C 
ATOM      8  N1  UNL     1     -83.796  51.532   7.958  0.00  0.00    -0.172 NA
ATOM      9  N2  UNL     1     -84.605  51.406   9.112  0.00  0.00    -0.222 N 
ATOM     10  C14 UNL     1     -84.313  50.508  10.031  0.00  0.00    +0.253 C 
ATOM     11  O2  UNL     1     -85.112  50.344  11.165  0.00  0.00    -0.271 OA
ATOM     12  C15 UNL     1     -83.075  49.656   9.883  0.00  0.00    +0.091 C 
ATOM     13  C16 UNL     1     -81.868  50.379  10.513  0.00  0.00    +0.035 C 
ATOM     14  C17 UNL     1     -80.544  49.792  10.105  0.00  0.00    -0.030 C 
ATOM     15  C18 UNL     1     -80.391  49.042   9.005  0.00  0.00    -0.030 C 
ATOM     16  C19 UNL     1     -81.558  48.514   8.215  0.00  0.00    +0.032 C 
ATOM     17  C20 UNL     1     -82.839  49.356   8.393  0.00  0.00    +0.056 C 
BRANCH   9  18
ATOM     18  C7  UNL     1     -85.809  52.261   9.171  0.00  0.00    +0.108 C 
ATOM     19  C8  UNL     1     -85.622  53.431  10.161  0.00  0.00    +0.024 C 
ATOM     20  C9  UNL     1     -86.816  54.401  10.202  0.00  0.00    +0.002 C 
ATOM     21  C10 UNL     1     -88.011  53.817  10.976  0.00  0.00    +0.000 C 
ATOM     22  C11 UNL     1     -88.994  52.995  10.119  0.00  0.00    +0.000 C 
ATOM     23  C12 UNL     1     -88.369  52.131   9.007  0.00  0.00    +0.002 C 
ATOM     24  C13 UNL     1     -87.076  51.407   9.423  0.00  0.00    +0.024 C 
ENDBRANCH   9  18
ENDBRANCH   4   7
BRANCH   1  26
ATOM     25  C1  UNL     1     -81.229  51.058   1.223  0.00  0.00    +0.253 C 
ATOM     26  O1  UNL     1     -80.509  51.017   2.453  0.00  0.00    -0.468 OA
ENDBRANCH   1  26
BRANCH   6  27
ATOM     27  O3  UNL     1     -82.079  48.859   3.074  0.00  0.00    -0.472 OA
BRANCH  27  28
ATOM     28  C23 UNL     1     -83.266  48.643   2.312  0.00  0.00    +0.206 C 
BRANCH  28  29
ATOM     29  C24 UNL     1     -84.212  49.833   2.468  0.00  0.00    +0.051 C 
BRANCH  29  30
ATOM     30  C25 UNL     1     -85.529  49.595   1.713  0.00  0.00    +0.051 C 
BRANCH  30  31
ATOM     31  C26 UNL     1     -85.299  49.533   0.199  0.00  0.00    +0.206 C 
BRANCH  31  32
ATOM     32  O4  UNL     1     -86.275  50.316  -0.491  0.00  0.00    -0.475 OA
BRANCH  32  33
ATOM     33  C27 UNL     1     -86.437  51.708  -0.367  0.00  0.00    +0.139 A 
ATOM     34  C28 UNL     1     -86.464  52.579  -1.475  0.00  0.00    +0.037 A 
ATOM     35  C29 UNL     1     -86.595  53.958  -1.287  0.00  0.00    +0.006 A 
ATOM     36  C30 UNL     1     -86.719  54.492   0.006  0.00  0.00    +0.040 A 
ATOM     37  C32 UNL     1     -86.707  53.619   1.107  0.00  0.00    +0.006 A 
ATOM     38  C33 UNL     1     -86.567  52.242   0.920  0.00  0.00    +0.037 A 
BRANCH  36  39
ATOM     39  C31 UNL     1     -86.863  55.950   0.205  0.00  0.00    +0.208 A 
ATOM     40  N3  UNL     1     -87.803  56.724  -0.378  0.00  0.00    -0.106 NA
ATOM     41  N4  UNL     1     -87.574  57.952   0.053  0.00  0.00    -0.021 NA
ATOM     42  N5  UNL     1     -86.539  57.949   0.874  0.00  0.00    -0.021 NA
ATOM     43  N6  UNL     1     -86.073  56.717   0.989  0.00  0.00    -0.106 NA
ENDBRANCH  36  39
ENDBRANCH  32  33
ENDBRANCH  31  32
ENDBRANCH  30  31
ENDBRANCH  29  30
ENDBRANCH  28  29
ENDBRANCH  27  28
ENDBRANCH   6  27
TORSDOF 11
ENDMDL
