MODEL 1
REMARK VINA RESULT:      -7.4      0.000      0.000
REMARK  Name = ./data/4wxx_site_bc02/pdb/l0c1.pdb
REMARK  11 active torsions:
REMARK  status: ('A' for Active; 'I' for Inactive)
REMARK    1  A    between atoms: O1_2  and  C2_3
REMARK    2  A    between atoms: C5_6  and  C6_7
REMARK    3  A    between atoms: N2_9  and  C7_10
REMARK    4  A    between atoms: C19_23  and  O3_24
REMARK    5  A    between atoms: O3_24  and  C20_25
REMARK    6  A    between atoms: C20_25  and  C21_26
REMARK    7  A    between atoms: C21_26  and  C22_27
REMARK    8  A    between atoms: C22_27  and  C23_28
REMARK    9  A    between atoms: C23_28  and  O4_29
REMARK   10  A    between atoms: O4_29  and  C24_30
REMARK   11  A    between atoms: C27_33  and  C28_34
REMARK                            x       y       z     vdW  Elec       q    Type
REMARK                         _______ _______ _______ _____ _____    ______ ____
ROOT
ATOM      1  C2  UNL     1     -36.065  67.579 -23.949  0.00  0.00    +0.172 A 
ATOM      2  C3  UNL     1     -36.630  67.808 -22.684  0.00  0.00    +0.040 A 
ATOM      3  C4  UNL     1     -37.089  66.739 -21.910  0.00  0.00    +0.005 A 
ATOM      4  C5  UNL     1     -37.002  65.418 -22.382  0.00  0.00    +0.019 A 
ATOM      5  C18 UNL     1     -36.393  65.192 -23.627  0.00  0.00    +0.041 A 
ATOM      6  C19 UNL     1     -35.937  66.264 -24.420  0.00  0.00    +0.172 A 
ENDROOT
BRANCH   4   7
ATOM      7  C6  UNL     1     -37.604  64.308 -21.592  0.00  0.00    +0.086 C 
ATOM      8  N1  UNL     1     -38.533  63.555 -22.091  0.00  0.00    -0.171 NA
ATOM      9  N2  UNL     1     -38.767  62.468 -21.249  0.00  0.00    -0.222 N 
ATOM     10  C14 UNL     1     -37.984  62.528 -20.220  0.00  0.00    +0.257 C 
ATOM     11  O2  UNL     1     -37.976  61.565 -19.214  0.00  0.00    -0.270 OA
ATOM     12  C15 UNL     1     -37.116  63.752 -20.258  0.00  0.00    +0.110 C 
ATOM     13  C16 UNL     1     -37.462  64.657 -19.062  0.00  0.00    +0.015 C 
ATOM     14  C17 UNL     1     -35.628  63.355 -20.297  0.00  0.00    +0.015 C 
BRANCH   9  15
ATOM     15  C7  UNL     1     -39.760  61.413 -21.502  0.00  0.00    +0.108 C 
ATOM     16  C8  UNL     1     -39.729  60.951 -22.986  0.00  0.00    +0.024 C 
ATOM     17  C9  UNL     1     -40.128  59.474 -23.150  0.00  0.00    +0.002 C 
ATOM     18  C10 UNL     1     -41.633  59.216 -23.029  0.00  0.00    +0.000 C 
ATOM     19  C11 UNL     1     -42.220  59.650 -21.676  0.00  0.00    +0.000 C 
ATOM     20  C12 UNL     1     -42.380  61.175 -21.590  0.00  0.00    +0.002 C 
ATOM     21  C13 UNL     1     -41.152  61.898 -21.013  0.00  0.00    +0.024 C 
ENDBRANCH   9  15
ENDBRANCH   4   7
BRANCH   1  23
ATOM     22  C1  UNL     1     -35.756  70.011 -24.455  0.00  0.00    +0.253 C 
ATOM     23  O1  UNL     1     -35.620  68.630 -24.770  0.00  0.00    -0.468 OA
ENDBRANCH   1  23
BRANCH   6  24
ATOM     24  O3  UNL     1     -35.353  66.068 -25.689  0.00  0.00    -0.472 OA
BRANCH  24  25
ATOM     25  C20 UNL     1     -35.924  65.305 -26.754  0.00  0.00    +0.206 C 
BRANCH  25  26
ATOM     26  C21 UNL     1     -35.261  63.924 -26.851  0.00  0.00    +0.051 C 
BRANCH  26  27
ATOM     27  C22 UNL     1     -33.858  64.037 -27.462  0.00  0.00    +0.051 C 
BRANCH  27  28
ATOM     28  C23 UNL     1     -32.865  63.110 -26.756  0.00  0.00    +0.206 C 
BRANCH  28  29
ATOM     29  O4  UNL     1     -31.881  63.874 -26.059  0.00  0.00    -0.475 OA
BRANCH  29  30
ATOM     30  C24 UNL     1     -32.133  64.759 -24.996  0.00  0.00    +0.139 A 
ATOM     31  C25 UNL     1     -32.586  64.333 -23.734  0.00  0.00    +0.037 A 
ATOM     32  C26 UNL     1     -32.794  65.262 -22.707  0.00  0.00    +0.006 A 
ATOM     33  C27 UNL     1     -32.562  66.635 -22.920  0.00  0.00    +0.040 A 
ATOM     34  C29 UNL     1     -32.124  67.051 -24.191  0.00  0.00    +0.006 A 
ATOM     35  C30 UNL     1     -31.909  66.122 -25.213  0.00  0.00    +0.037 A 
BRANCH  33  36
ATOM     36  C28 UNL     1     -32.764  67.624 -21.822  0.00  0.00    +0.208 A 
ATOM     37  N3  UNL     1     -32.441  67.429 -20.526  0.00  0.00    -0.106 NA
ATOM     38  N4  UNL     1     -32.786  68.539 -19.896  0.00  0.00    -0.021 NA
ATOM     39  N5  UNL     1     -33.302  69.398 -20.760  0.00  0.00    -0.021 NA
ATOM     40  N6  UNL     1     -33.304  68.856 -21.967  0.00  0.00    -0.106 NA
ENDBRANCH  33  36
ENDBRANCH  29  30
ENDBRANCH  28  29
ENDBRANCH  27  28
ENDBRANCH  26  27
ENDBRANCH  25  26
ENDBRANCH  24  25
ENDBRANCH   6  24
TORSDOF 11
ENDMDL
MODEL 2
REMARK VINA RESULT:      -7.0      2.207      3.359
REMARK  Name = ./data/4wxx_site_bc02/pdb/l0c1.pdb
REMARK  11 active torsions:
REMARK  status: ('A' for Active; 'I' for Inactive)
REMARK    1  A    between atoms: O1_2  and  C2_3
REMARK    2  A    between atoms: C5_6  and  C6_7
REMARK    3  A    between atoms: N2_9  and  C7_10
REMARK    4  A    between atoms: C19_23  and  O3_24
REMARK    5  A    between atoms: O3_24  and  C20_25
REMARK    6  A    between atoms: C20_25  and  C21_26
REMARK    7  A    between atoms: C21_26  and  C22_27
REMARK    8  A    between atoms: C22_27  and  C23_28
REMARK    9  A    between atoms: C23_28  and  O4_29
REMARK   10  A    between atoms: O4_29  and  C24_30
REMARK   11  A    between atoms: C27_33  and  C28_34
REMARK                            x       y       z     vdW  Elec       q    Type
REMARK                         _______ _______ _______ _____ _____    ______ ____
ROOT
ATOM      1  C2  UNL     1     -36.382  67.644 -24.661  0.00  0.00    +0.172 A 
ATOM      2  C3  UNL     1     -37.178  67.405 -23.529  0.00  0.00    +0.040 A 
ATOM      3  C4  UNL     1     -37.510  66.099 -23.160  0.00  0.00    +0.005 A 
ATOM      4  C5  UNL     1     -37.063  65.001 -23.915  0.00  0.00    +0.019 A 
ATOM      5  C18 UNL     1     -36.228  65.244 -25.018  0.00  0.00    +0.041 A 
ATOM      6  C19 UNL     1     -35.896  66.558 -25.405  0.00  0.00    +0.172 A 
ENDROOT
BRANCH   4   7
ATOM      7  C6  UNL     1     -37.526  63.628 -23.572  0.00  0.00    +0.086 C 
ATOM      8  N1  UNL     1     -38.069  63.371 -22.424  0.00  0.00    -0.171 NA
ATOM      9  N2  UNL     1     -38.611  62.085 -22.433  0.00  0.00    -0.222 N 
ATOM     10  C14 UNL     1     -38.416  61.530 -23.585  0.00  0.00    +0.257 C 
ATOM     11  O2  UNL     1     -38.865  60.249 -23.898  0.00  0.00    -0.270 OA
ATOM     12  C15 UNL     1     -37.651  62.432 -24.510  0.00  0.00    +0.110 C 
ATOM     13  C16 UNL     1     -36.297  61.782 -24.847  0.00  0.00    +0.015 C 
ATOM     14  C17 UNL     1     -38.488  62.754 -25.762  0.00  0.00    +0.015 C 
BRANCH   9  15
ATOM     15  C7  UNL     1     -39.302  61.461 -21.294  0.00  0.00    +0.108 C 
ATOM     16  C8  UNL     1     -40.838  61.693 -21.367  0.00  0.00    +0.024 C 
ATOM     17  C9  UNL     1     -41.636  60.543 -20.729  0.00  0.00    +0.002 C 
ATOM     18  C10 UNL     1     -41.638  60.558 -19.197  0.00  0.00    +0.000 C 
ATOM     19  C11 UNL     1     -40.230  60.467 -18.585  0.00  0.00    +0.000 C 
ATOM     20  C12 UNL     1     -39.479  61.802 -18.689  0.00  0.00    +0.002 C 
ATOM     21  C13 UNL     1     -38.644  61.948 -19.973  0.00  0.00    +0.024 C 
ENDBRANCH   9  15
ENDBRANCH   4   7
BRANCH   1  23
ATOM     22  C1  UNL     1     -35.429  69.923 -24.258  0.00  0.00    +0.253 C 
ATOM     23  O1  UNL     1     -36.051  68.944 -25.082  0.00  0.00    -0.468 OA
ENDBRANCH   1  23
BRANCH   6  24
ATOM     24  O3  UNL     1     -35.089  66.831 -26.529  0.00  0.00    -0.472 OA
BRANCH  24  25
ATOM     25  C20 UNL     1     -34.471  65.850 -27.364  0.00  0.00    +0.206 C 
BRANCH  25  26
ATOM     26  C21 UNL     1     -32.973  66.143 -27.531  0.00  0.00    +0.051 C 
BRANCH  26  27
ATOM     27  C22 UNL     1     -32.656  67.592 -27.140  0.00  0.00    +0.051 C 
BRANCH  27  28
ATOM     28  C23 UNL     1     -31.825  67.654 -25.856  0.00  0.00    +0.206 C 
BRANCH  28  29
ATOM     29  O4  UNL     1     -31.656  66.347 -25.309  0.00  0.00    -0.475 OA
BRANCH  29  30
ATOM     30  C24 UNL     1     -32.412  65.794 -24.261  0.00  0.00    +0.139 A 
ATOM     31  C25 UNL     1     -32.691  64.418 -24.158  0.00  0.00    +0.037 A 
ATOM     32  C26 UNL     1     -33.429  63.926 -23.075  0.00  0.00    +0.006 A 
ATOM     33  C27 UNL     1     -33.910  64.795 -22.076  0.00  0.00    +0.040 A 
ATOM     34  C29 UNL     1     -33.638  66.170 -22.197  0.00  0.00    +0.006 A 
ATOM     35  C30 UNL     1     -32.895  66.660 -23.275  0.00  0.00    +0.037 A 
BRANCH  33  36
ATOM     36  C28 UNL     1     -34.679  64.270 -20.911  0.00  0.00    +0.208 A 
ATOM     37  N3  UNL     1     -35.378  65.023 -20.035  0.00  0.00    -0.106 NA
ATOM     38  N4  UNL     1     -35.898  64.175 -19.164  0.00  0.00    -0.021 NA
ATOM     39  N5  UNL     1     -35.544  62.940 -19.481  0.00  0.00    -0.021 NA
ATOM     40  N6  UNL     1     -34.782  62.968 -20.562  0.00  0.00    -0.106 NA
ENDBRANCH  33  36
ENDBRANCH  29  30
ENDBRANCH  28  29
ENDBRANCH  27  28
ENDBRANCH  26  27
ENDBRANCH  25  26
ENDBRANCH  24  25
ENDBRANCH   6  24
TORSDOF 11
ENDMDL
MODEL 3
REMARK VINA RESULT:      -6.8      1.598      2.008
REMARK  Name = ./data/4wxx_site_bc02/pdb/l0c1.pdb
REMARK  11 active torsions:
REMARK  status: ('A' for Active; 'I' for Inactive)
REMARK    1  A    between atoms: O1_2  and  C2_3
REMARK    2  A    between atoms: C5_6  and  C6_7
REMARK    3  A    between atoms: N2_9  and  C7_10
REMARK    4  A    between atoms: C19_23  and  O3_24
REMARK    5  A    between atoms: O3_24  and  C20_25
REMARK    6  A    between atoms: C20_25  and  C21_26
REMARK    7  A    between atoms: C21_26  and  C22_27
REMARK    8  A    between atoms: C22_27  and  C23_28
REMARK    9  A    between atoms: C23_28  and  O4_29
REMARK   10  A    between atoms: O4_29  and  C24_30
REMARK   11  A    between atoms: C27_33  and  C28_34
REMARK                            x       y       z     vdW  Elec       q    Type
REMARK                         _______ _______ _______ _____ _____    ______ ____
ROOT
ATOM      1  C2  UNL     1     -35.948  67.768 -23.926  0.00  0.00    +0.172 A 
ATOM      2  C3  UNL     1     -36.641  68.004 -22.727  0.00  0.00    +0.040 A 
ATOM      3  C4  UNL     1     -37.101  66.937 -21.953  0.00  0.00    +0.005 A 
ATOM      4  C5  UNL     1     -36.888  65.608 -22.359  0.00  0.00    +0.019 A 
ATOM      5  C18 UNL     1     -36.154  65.378 -23.533  0.00  0.00    +0.041 A 
ATOM      6  C19 UNL     1     -35.695  66.447 -24.327  0.00  0.00    +0.172 A 
ENDROOT
BRANCH   4   7
ATOM      7  C6  UNL     1     -37.489  64.490 -21.579  0.00  0.00    +0.086 C 
ATOM      8  N1  UNL     1     -38.397  63.723 -22.096  0.00  0.00    -0.171 NA
ATOM      9  N2  UNL     1     -38.631  62.634 -21.256  0.00  0.00    -0.222 N 
ATOM     10  C14 UNL     1     -37.871  62.706 -20.213  0.00  0.00    +0.257 C 
ATOM     11  O2  UNL     1     -37.868  61.745 -19.205  0.00  0.00    -0.270 OA
ATOM     12  C15 UNL     1     -37.019  63.943 -20.235  0.00  0.00    +0.110 C 
ATOM     13  C16 UNL     1     -37.403  64.844 -19.047  0.00  0.00    +0.015 C 
ATOM     14  C17 UNL     1     -35.525  63.568 -20.244  0.00  0.00    +0.015 C 
BRANCH   9  15
ATOM     15  C7  UNL     1     -39.604  61.564 -21.528  0.00  0.00    +0.108 C 
ATOM     16  C8  UNL     1     -39.589  61.152 -23.027  0.00  0.00    +0.024 C 
ATOM     17  C9  UNL     1     -39.956  59.673 -23.233  0.00  0.00    +0.002 C 
ATOM     18  C10 UNL     1     -41.452  59.374 -23.096  0.00  0.00    +0.000 C 
ATOM     19  C11 UNL     1     -42.024  59.748 -21.718  0.00  0.00    +0.000 C 
ATOM     20  C12 UNL     1     -42.219  61.265 -21.578  0.00  0.00    +0.002 C 
ATOM     21  C13 UNL     1     -40.998  61.999 -20.998  0.00  0.00    +0.024 C 
ENDBRANCH   9  15
ENDBRANCH   4   7
BRANCH   1  23
ATOM     22  C1  UNL     1     -34.269  69.511 -24.563  0.00  0.00    +0.253 C 
ATOM     23  O1  UNL     1     -35.496  68.815 -24.747  0.00  0.00    -0.468 OA
ENDBRANCH   1  23
BRANCH   6  24
ATOM     24  O3  UNL     1     -34.986  66.244 -25.529  0.00  0.00    -0.472 OA
BRANCH  24  25
ATOM     25  C20 UNL     1     -35.540  65.725 -26.740  0.00  0.00    +0.206 C 
BRANCH  25  26
ATOM     26  C21 UNL     1     -34.467  64.997 -27.562  0.00  0.00    +0.051 C 
BRANCH  26  27
ATOM     27  C22 UNL     1     -34.046  63.693 -26.871  0.00  0.00    +0.051 C 
BRANCH  27  28
ATOM     28  C23 UNL     1     -32.522  63.570 -26.791  0.00  0.00    +0.206 C 
BRANCH  28  29
ATOM     29  O4  UNL     1     -32.146  62.779 -25.664  0.00  0.00    -0.475 OA
BRANCH  29  30
ATOM     30  C24 UNL     1     -31.596  63.269 -24.467  0.00  0.00    +0.139 A 
ATOM     31  C25 UNL     1     -30.319  62.906 -24.003  0.00  0.00    +0.037 A 
ATOM     32  C26 UNL     1     -29.817  63.449 -22.814  0.00  0.00    +0.006 A 
ATOM     33  C27 UNL     1     -30.581  64.360 -22.060  0.00  0.00    +0.040 A 
ATOM     34  C29 UNL     1     -31.864  64.705 -22.525  0.00  0.00    +0.006 A 
ATOM     35  C30 UNL     1     -32.361  64.167 -23.716  0.00  0.00    +0.037 A 
BRANCH  33  36
ATOM     36  C28 UNL     1     -30.041  64.956 -20.803  0.00  0.00    +0.208 A 
ATOM     37  N3  UNL     1     -29.474  64.263 -19.793  0.00  0.00    -0.106 NA
ATOM     38  N4  UNL     1     -29.141  65.162 -18.881  0.00  0.00    -0.021 NA
ATOM     39  N5  UNL     1     -29.484  66.369 -19.302  0.00  0.00    -0.021 NA
ATOM     40  N6  UNL     1     -30.049  66.272 -20.494  0.00  0.00    -0.106 NA
ENDBRANCH  33  36
ENDBRANCH  29  30
ENDBRANCH  28  29
ENDBRANCH  27  28
ENDBRANCH  26  27
ENDBRANCH  25  26
ENDBRANCH  24  25
ENDBRANCH   6  24
TORSDOF 11
ENDMDL
MODEL 4
REMARK VINA RESULT:      -6.8      2.338      4.427
REMARK  Name = ./data/4wxx_site_bc02/pdb/l0c1.pdb
REMARK  11 active torsions:
REMARK  status: ('A' for Active; 'I' for Inactive)
REMARK    1  A    between atoms: O1_2  and  C2_3
REMARK    2  A    between atoms: C5_6  and  C6_7
REMARK    3  A    between atoms: N2_9  and  C7_10
REMARK    4  A    between atoms: C19_23  and  O3_24
REMARK    5  A    between atoms: O3_24  and  C20_25
REMARK    6  A    between atoms: C20_25  and  C21_26
REMARK    7  A    between atoms: C21_26  and  C22_27
REMARK    8  A    between atoms: C22_27  and  C23_28
REMARK    9  A    between atoms: C23_28  and  O4_29
REMARK   10  A    between atoms: O4_29  and  C24_30
REMARK   11  A    between atoms: C27_33  and  C28_34
REMARK                            x       y       z     vdW  Elec       q    Type
REMARK                         _______ _______ _______ _____ _____    ______ ____
ROOT
ATOM      1  C2  UNL     1     -33.579  63.142 -25.670  0.00  0.00    +0.172 A 
ATOM      2  C3  UNL     1     -34.869  62.612 -25.835  0.00  0.00    +0.040 A 
ATOM      3  C4  UNL     1     -35.858  62.845 -24.877  0.00  0.00    +0.005 A 
ATOM      4  C5  UNL     1     -35.582  63.607 -23.728  0.00  0.00    +0.019 A 
ATOM      5  C18 UNL     1     -34.305  64.174 -23.592  0.00  0.00    +0.041 A 
ATOM      6  C19 UNL     1     -33.297  63.935 -24.547  0.00  0.00    +0.172 A 
ENDROOT
BRANCH   4   7
ATOM      7  C6  UNL     1     -36.617  63.744 -22.665  0.00  0.00    +0.086 C 
ATOM      8  N1  UNL     1     -37.569  62.874 -22.539  0.00  0.00    -0.171 NA
ATOM      9  N2  UNL     1     -38.265  63.101 -21.351  0.00  0.00    -0.222 N 
ATOM     10  C14 UNL     1     -37.752  64.109 -20.722  0.00  0.00    +0.257 C 
ATOM     11  O2  UNL     1     -38.226  64.560 -19.493  0.00  0.00    -0.270 OA
ATOM     12  C15 UNL     1     -36.611  64.714 -21.488  0.00  0.00    +0.110 C 
ATOM     13  C16 UNL     1     -36.977  66.155 -21.888  0.00  0.00    +0.015 C 
ATOM     14  C17 UNL     1     -35.309  64.633 -20.667  0.00  0.00    +0.015 C 
BRANCH   9  15
ATOM     15  C7  UNL     1     -39.412  62.304 -20.888  0.00  0.00    +0.108 C 
ATOM     16  C8  UNL     1     -39.014  61.368 -19.712  0.00  0.00    +0.024 C 
ATOM     17  C9  UNL     1     -40.184  61.107 -18.749  0.00  0.00    +0.002 C 
ATOM     18  C10 UNL     1     -41.221  60.112 -19.279  0.00  0.00    +0.000 C 
ATOM     19  C11 UNL     1     -41.871  60.555 -20.600  0.00  0.00    +0.000 C 
ATOM     20  C12 UNL     1     -40.927  60.351 -21.794  0.00  0.00    +0.002 C 
ATOM     21  C13 UNL     1     -40.042  61.570 -22.104  0.00  0.00    +0.024 C 
ENDBRANCH   9  15
ENDBRANCH   4   7
BRANCH   1  23
ATOM     22  C1  UNL     1     -31.663  61.791 -26.548  0.00  0.00    +0.253 C 
ATOM     23  O1  UNL     1     -32.548  62.904 -26.596  0.00  0.00    -0.468 OA
ENDBRANCH   1  23
BRANCH   6  24
ATOM     24  O3  UNL     1     -31.995  64.463 -24.417  0.00  0.00    -0.472 OA
BRANCH  24  25
ATOM     25  C20 UNL     1     -30.927  63.860 -23.684  0.00  0.00    +0.206 C 
BRANCH  25  26
ATOM     26  C21 UNL     1     -31.216  63.892 -22.176  0.00  0.00    +0.051 C 
BRANCH  26  27
ATOM     27  C22 UNL     1     -30.036  64.503 -21.410  0.00  0.00    +0.051 C 
BRANCH  27  28
ATOM     28  C23 UNL     1     -30.243  66.001 -21.169  0.00  0.00    +0.206 C 
BRANCH  28  29
ATOM     29  O4  UNL     1     -31.597  66.263 -20.801  0.00  0.00    -0.475 OA
BRANCH  29  30
ATOM     30  C24 UNL     1     -32.316  67.432 -21.104  0.00  0.00    +0.139 A 
ATOM     31  C25 UNL     1     -32.172  68.631 -20.382  0.00  0.00    +0.037 A 
ATOM     32  C26 UNL     1     -32.898  69.770 -20.749  0.00  0.00    +0.006 A 
ATOM     33  C27 UNL     1     -33.790  69.734 -21.839  0.00  0.00    +0.040 A 
ATOM     34  C29 UNL     1     -33.939  68.526 -22.544  0.00  0.00    +0.006 A 
ATOM     35  C30 UNL     1     -33.207  67.391 -22.181  0.00  0.00    +0.037 A 
BRANCH  33  36
ATOM     36  C28 UNL     1     -34.551  70.951 -22.245  0.00  0.00    +0.208 A 
ATOM     37  N3  UNL     1     -34.496  71.537 -23.460  0.00  0.00    -0.106 NA
ATOM     38  N4  UNL     1     -35.309  72.578 -23.396  0.00  0.00    -0.021 NA
ATOM     39  N5  UNL     1     -35.856  72.642 -22.193  0.00  0.00    -0.021 NA
ATOM     40  N6  UNL     1     -35.401  71.644 -21.453  0.00  0.00    -0.106 NA
ENDBRANCH  33  36
ENDBRANCH  29  30
ENDBRANCH  28  29
ENDBRANCH  27  28
ENDBRANCH  26  27
ENDBRANCH  25  26
ENDBRANCH  24  25
ENDBRANCH   6  24
TORSDOF 11
ENDMDL
MODEL 5
REMARK VINA RESULT:      -6.4      2.863      4.834
REMARK  Name = ./data/4wxx_site_bc02/pdb/l0c1.pdb
REMARK  11 active torsions:
REMARK  status: ('A' for Active; 'I' for Inactive)
REMARK    1  A    between atoms: O1_2  and  C2_3
REMARK    2  A    between atoms: C5_6  and  C6_7
REMARK    3  A    between atoms: N2_9  and  C7_10
REMARK    4  A    between atoms: C19_23  and  O3_24
REMARK    5  A    between atoms: O3_24  and  C20_25
REMARK    6  A    between atoms: C20_25  and  C21_26
REMARK    7  A    between atoms: C21_26  and  C22_27
REMARK    8  A    between atoms: C22_27  and  C23_28
REMARK    9  A    between atoms: C23_28  and  O4_29
REMARK   10  A    between atoms: O4_29  and  C24_30
REMARK   11  A    between atoms: C27_33  and  C28_34
REMARK                            x       y       z     vdW  Elec       q    Type
REMARK                         _______ _______ _______ _____ _____    ______ ____
ROOT
ATOM      1  C2  UNL     1     -37.104  67.553 -26.274  0.00  0.00    +0.172 A 
ATOM      2  C3  UNL     1     -36.166  66.516 -26.398  0.00  0.00    +0.040 A 
ATOM      3  C4  UNL     1     -36.437  65.250 -25.874  0.00  0.00    +0.005 A 
ATOM      4  C5  UNL     1     -37.647  64.990 -25.207  0.00  0.00    +0.019 A 
ATOM      5  C18 UNL     1     -38.600  66.017 -25.128  0.00  0.00    +0.041 A 
ATOM      6  C19 UNL     1     -38.333  67.301 -25.644  0.00  0.00    +0.172 A 
ENDROOT
BRANCH   4   7
ATOM      7  C6  UNL     1     -37.864  63.669 -24.555  0.00  0.00    +0.086 C 
ATOM      8  N1  UNL     1     -38.259  63.584 -23.324  0.00  0.00    -0.171 NA
ATOM      9  N2  UNL     1     -38.598  62.265 -23.024  0.00  0.00    -0.222 N 
ATOM     10  C14 UNL     1     -38.423  61.514 -24.063  0.00  0.00    +0.257 C 
ATOM     11  O2  UNL     1     -38.697  60.149 -24.071  0.00  0.00    -0.270 OA
ATOM     12  C15 UNL     1     -37.888  62.299 -25.226  0.00  0.00    +0.110 C 
ATOM     13  C16 UNL     1     -36.485  61.777 -25.587  0.00  0.00    +0.015 C 
ATOM     14  C17 UNL     1     -38.871  62.243 -26.411  0.00  0.00    +0.015 C 
BRANCH   9  15
ATOM     15  C7  UNL     1     -39.084  61.803 -21.714  0.00  0.00    +0.108 C 
ATOM     16  C8  UNL     1     -40.600  62.097 -21.537  0.00  0.00    +0.024 C 
ATOM     17  C9  UNL     1     -41.296  61.063 -20.635  0.00  0.00    +0.002 C 
ATOM     18  C10 UNL     1     -41.017  61.248 -19.140  0.00  0.00    +0.000 C 
ATOM     19  C11 UNL     1     -39.524  61.161 -18.784  0.00  0.00    +0.000 C 
ATOM     20  C12 UNL     1     -38.770  62.440 -19.178  0.00  0.00    +0.002 C 
ATOM     21  C13 UNL     1     -38.182  62.403 -20.599  0.00  0.00    +0.024 C 
ENDBRANCH   9  15
ENDBRANCH   4   7
BRANCH   1  23
ATOM     22  C1  UNL     1     -36.009  69.799 -26.126  0.00  0.00    +0.253 C 
ATOM     23  O1  UNL     1     -36.856  68.849 -26.761  0.00  0.00    -0.468 OA
ENDBRANCH   1  23
BRANCH   6  24
ATOM     24  O3  UNL     1     -39.258  68.361 -25.547  0.00  0.00    -0.472 OA
BRANCH  24  25
ATOM     25  C20 UNL     1     -39.764  68.910 -24.328  0.00  0.00    +0.206 C 
BRANCH  25  26
ATOM     26  C21 UNL     1     -38.884  70.075 -23.850  0.00  0.00    +0.051 C 
BRANCH  26  27
ATOM     27  C22 UNL     1     -38.517  69.906 -22.370  0.00  0.00    +0.051 C 
BRANCH  27  28
ATOM     28  C23 UNL     1     -37.017  69.660 -22.191  0.00  0.00    +0.206 C 
BRANCH  28  29
ATOM     29  O4  UNL     1     -36.588  68.579 -23.018  0.00  0.00    -0.475 OA
BRANCH  29  30
ATOM     30  C24 UNL     1     -35.858  67.458 -22.586  0.00  0.00    +0.139 A 
ATOM     31  C25 UNL     1     -34.464  67.343 -22.739  0.00  0.00    +0.037 A 
ATOM     32  C26 UNL     1     -33.791  66.212 -22.264  0.00  0.00    +0.006 A 
ATOM     33  C27 UNL     1     -34.494  65.166 -21.635  0.00  0.00    +0.040 A 
ATOM     34  C29 UNL     1     -35.890  65.283 -21.502  0.00  0.00    +0.006 A 
ATOM     35  C30 UNL     1     -36.561  66.418 -21.969  0.00  0.00    +0.037 A 
BRANCH  33  36
ATOM     36  C28 UNL     1     -33.778  63.968 -21.111  0.00  0.00    +0.208 A 
ATOM     37  N3  UNL     1     -34.357  62.792 -20.786  0.00  0.00    -0.106 NA
ATOM     38  N4  UNL     1     -33.377  62.011 -20.363  0.00  0.00    -0.021 NA
ATOM     39  N5  UNL     1     -32.229  62.667 -20.422  0.00  0.00    -0.021 NA
ATOM     40  N6  UNL     1     -32.447  63.889 -20.881  0.00  0.00    -0.106 NA
ENDBRANCH  33  36
ENDBRANCH  29  30
ENDBRANCH  28  29
ENDBRANCH  27  28
ENDBRANCH  26  27
ENDBRANCH  25  26
ENDBRANCH  24  25
ENDBRANCH   6  24
TORSDOF 11
ENDMDL
MODEL 6
REMARK VINA RESULT:      -6.2      2.884      5.607
REMARK  Name = ./data/4wxx_site_bc02/pdb/l0c1.pdb
REMARK  11 active torsions:
REMARK  status: ('A' for Active; 'I' for Inactive)
REMARK    1  A    between atoms: O1_2  and  C2_3
REMARK    2  A    between atoms: C5_6  and  C6_7
REMARK    3  A    between atoms: N2_9  and  C7_10
REMARK    4  A    between atoms: C19_23  and  O3_24
REMARK    5  A    between atoms: O3_24  and  C20_25
REMARK    6  A    between atoms: C20_25  and  C21_26
REMARK    7  A    between atoms: C21_26  and  C22_27
REMARK    8  A    between atoms: C22_27  and  C23_28
REMARK    9  A    between atoms: C23_28  and  O4_29
REMARK   10  A    between atoms: O4_29  and  C24_30
REMARK   11  A    between atoms: C27_33  and  C28_34
REMARK                            x       y       z     vdW  Elec       q    Type
REMARK                         _______ _______ _______ _____ _____    ______ ____
ROOT
ATOM      1  C2  UNL     1     -34.000  62.971 -25.922  0.00  0.00    +0.172 A 
ATOM      2  C3  UNL     1     -35.203  62.248 -25.890  0.00  0.00    +0.040 A 
ATOM      3  C4  UNL     1     -36.130  62.461 -24.867  0.00  0.00    +0.005 A 
ATOM      4  C5  UNL     1     -35.876  63.395 -23.848  0.00  0.00    +0.019 A 
ATOM      5  C18 UNL     1     -34.693  64.149 -23.912  0.00  0.00    +0.041 A 
ATOM      6  C19 UNL     1     -33.747  63.934 -24.934  0.00  0.00    +0.172 A 
ENDROOT
BRANCH   4   7
ATOM      7  C6  UNL     1     -36.823  63.521 -22.705  0.00  0.00    +0.086 C 
ATOM      8  N1  UNL     1     -37.803  62.687 -22.551  0.00  0.00    -0.171 NA
ATOM      9  N2  UNL     1     -38.399  62.882 -21.305  0.00  0.00    -0.222 N 
ATOM     10  C14 UNL     1     -37.797  63.833 -20.668  0.00  0.00    +0.257 C 
ATOM     11  O2  UNL     1     -38.159  64.240 -19.386  0.00  0.00    -0.270 OA
ATOM     12  C15 UNL     1     -36.687  64.428 -21.486  0.00  0.00    +0.110 C 
ATOM     13  C16 UNL     1     -37.014  65.902 -21.788  0.00  0.00    +0.015 C 
ATOM     14  C17 UNL     1     -35.335  64.250 -20.770  0.00  0.00    +0.015 C 
BRANCH   9  15
ATOM     15  C7  UNL     1     -39.546  62.112 -20.797  0.00  0.00    +0.108 C 
ATOM     16  C8  UNL     1     -39.131  61.189 -19.617  0.00  0.00    +0.024 C 
ATOM     17  C9  UNL     1     -40.277  60.964 -18.617  0.00  0.00    +0.002 C 
ATOM     18  C10 UNL     1     -41.344  59.977 -19.101  0.00  0.00    +0.000 C 
ATOM     19  C11 UNL     1     -42.024  60.409 -20.411  0.00  0.00    +0.000 C 
ATOM     20  C12 UNL     1     -41.117  60.169 -21.627  0.00  0.00    +0.002 C 
ATOM     21  C13 UNL     1     -40.222  61.368 -21.982  0.00  0.00    +0.024 C 
ENDBRANCH   9  15
ENDBRANCH   4   7
BRANCH   1  23
ATOM     22  C1  UNL     1     -33.322  62.451 -28.275  0.00  0.00    +0.253 C 
ATOM     23  O1  UNL     1     -33.029  62.764 -26.918  0.00  0.00    -0.468 OA
ENDBRANCH   1  23
BRANCH   6  24
ATOM     24  O3  UNL     1     -32.535  64.652 -25.002  0.00  0.00    -0.472 OA
BRANCH  24  25
ATOM     25  C20 UNL     1     -32.069  65.587 -24.026  0.00  0.00    +0.206 C 
BRANCH  25  26
ATOM     26  C21 UNL     1     -32.337  67.028 -24.482  0.00  0.00    +0.051 C 
BRANCH  26  27
ATOM     27  C22 UNL     1     -33.596  67.586 -23.806  0.00  0.00    +0.051 C 
BRANCH  27  28
ATOM     28  C23 UNL     1     -34.531  68.245 -24.823  0.00  0.00    +0.206 C 
BRANCH  28  29
ATOM     29  O4  UNL     1     -34.559  67.491 -26.034  0.00  0.00    -0.475 OA
BRANCH  29  30
ATOM     30  C24 UNL     1     -35.600  66.641 -26.445  0.00  0.00    +0.139 A 
ATOM     31  C25 UNL     1     -35.528  65.841 -27.601  0.00  0.00    +0.037 A 
ATOM     32  C26 UNL     1     -36.590  64.996 -27.944  0.00  0.00    +0.006 A 
ATOM     33  C27 UNL     1     -37.749  64.935 -27.145  0.00  0.00    +0.040 A 
ATOM     34  C29 UNL     1     -37.817  65.751 -26.001  0.00  0.00    +0.006 A 
ATOM     35  C30 UNL     1     -36.753  66.589 -25.655  0.00  0.00    +0.037 A 
BRANCH  33  36
ATOM     36  C28 UNL     1     -38.874  64.021 -27.497  0.00  0.00    +0.208 A 
ATOM     37  N3  UNL     1     -38.974  62.728 -27.124  0.00  0.00    -0.106 NA
ATOM     38  N4  UNL     1     -40.107  62.287 -27.645  0.00  0.00    -0.021 NA
ATOM     39  N5  UNL     1     -40.696  63.264 -28.315  0.00  0.00    -0.021 NA
ATOM     40  N6  UNL     1     -39.951  64.355 -28.244  0.00  0.00    -0.106 NA
ENDBRANCH  33  36
ENDBRANCH  29  30
ENDBRANCH  28  29
ENDBRANCH  27  28
ENDBRANCH  26  27
ENDBRANCH  25  26
ENDBRANCH  24  25
ENDBRANCH   6  24
TORSDOF 11
ENDMDL
MODEL 7
REMARK VINA RESULT:      -6.1      2.290      3.943
REMARK  Name = ./data/4wxx_site_bc02/pdb/l0c1.pdb
REMARK  11 active torsions:
REMARK  status: ('A' for Active; 'I' for Inactive)
REMARK    1  A    between atoms: O1_2  and  C2_3
REMARK    2  A    between atoms: C5_6  and  C6_7
REMARK    3  A    between atoms: N2_9  and  C7_10
REMARK    4  A    between atoms: C19_23  and  O3_24
REMARK    5  A    between atoms: O3_24  and  C20_25
REMARK    6  A    between atoms: C20_25  and  C21_26
REMARK    7  A    between atoms: C21_26  and  C22_27
REMARK    8  A    between atoms: C22_27  and  C23_28
REMARK    9  A    between atoms: C23_28  and  O4_29
REMARK   10  A    between atoms: O4_29  and  C24_30
REMARK   11  A    between atoms: C27_33  and  C28_34
REMARK                            x       y       z     vdW  Elec       q    Type
REMARK                         _______ _______ _______ _____ _____    ______ ____
ROOT
ATOM      1  C2  UNL     1     -34.909  65.479 -25.899  0.00  0.00    +0.172 A 
ATOM      2  C3  UNL     1     -34.698  64.152 -25.488  0.00  0.00    +0.040 A 
ATOM      3  C4  UNL     1     -35.357  63.645 -24.366  0.00  0.00    +0.005 A 
ATOM      4  C5  UNL     1     -36.237  64.451 -23.622  0.00  0.00    +0.019 A 
ATOM      5  C18 UNL     1     -36.481  65.760 -24.066  0.00  0.00    +0.041 A 
ATOM      6  C19 UNL     1     -35.813  66.285 -25.190  0.00  0.00    +0.172 A 
ENDROOT
BRANCH   4   7
ATOM      7  C6  UNL     1     -36.837  63.926 -22.364  0.00  0.00    +0.086 C 
ATOM      8  N1  UNL     1     -38.002  63.360 -22.361  0.00  0.00    -0.171 NA
ATOM      9  N2  UNL     1     -38.237  62.764 -21.122  0.00  0.00    -0.222 N 
ATOM     10  C14 UNL     1     -37.222  62.948 -20.342  0.00  0.00    +0.257 C 
ATOM     11  O2  UNL     1     -37.160  62.449 -19.043  0.00  0.00    -0.270 OA
ATOM     12  C15 UNL     1     -36.152  63.761 -21.011  0.00  0.00    +0.110 C 
ATOM     13  C16 UNL     1     -35.976  65.090 -20.254  0.00  0.00    +0.015 C 
ATOM     14  C17 UNL     1     -34.844  62.952 -21.111  0.00  0.00    +0.015 C 
BRANCH   9  15
ATOM     15  C7  UNL     1     -39.464  62.035 -20.764  0.00  0.00    +0.108 C 
ATOM     16  C8  UNL     1     -39.220  61.069 -19.570  0.00  0.00    +0.024 C 
ATOM     17  C9  UNL     1     -40.479  60.872 -18.708  0.00  0.00    +0.002 C 
ATOM     18  C10 UNL     1     -41.526  59.945 -19.333  0.00  0.00    +0.000 C 
ATOM     19  C11 UNL     1     -42.038  60.435 -20.697  0.00  0.00    +0.000 C 
ATOM     20  C12 UNL     1     -41.013  60.182 -21.813  0.00  0.00    +0.002 C 
ATOM     21  C13 UNL     1     -40.035  61.348 -22.035  0.00  0.00    +0.024 C 
ENDBRANCH   9  15
ENDBRANCH   4   7
BRANCH   1  23
ATOM     22  C1  UNL     1     -34.341  65.542 -28.336  0.00  0.00    +0.253 C 
ATOM     23  O1  UNL     1     -34.242  66.034 -27.005  0.00  0.00    -0.468 OA
ENDBRANCH   1  23
BRANCH   6  24
ATOM     24  O3  UNL     1     -36.012  67.608 -25.637  0.00  0.00    -0.472 OA
BRANCH  24  25
ATOM     25  C20 UNL     1     -37.195  68.383 -25.428  0.00  0.00    +0.206 C 
BRANCH  25  26
ATOM     26  C21 UNL     1     -36.900  69.594 -24.531  0.00  0.00    +0.051 C 
BRANCH  26  27
ATOM     27  C22 UNL     1     -36.958  69.199 -23.050  0.00  0.00    +0.051 C 
BRANCH  27  28
ATOM     28  C23 UNL     1     -35.733  69.712 -22.287  0.00  0.00    +0.206 C 
BRANCH  28  29
ATOM     29  O4  UNL     1     -34.558  69.577 -23.084  0.00  0.00    -0.475 OA
BRANCH  29  30
ATOM     30  C24 UNL     1     -33.749  68.431 -23.162  0.00  0.00    +0.139 A 
ATOM     31  C25 UNL     1     -33.848  67.357 -22.258  0.00  0.00    +0.037 A 
ATOM     32  C26 UNL     1     -33.030  66.230 -22.404  0.00  0.00    +0.006 A 
ATOM     33  C27 UNL     1     -32.090  66.154 -23.450  0.00  0.00    +0.040 A 
ATOM     34  C29 UNL     1     -31.987  67.240 -24.339  0.00  0.00    +0.006 A 
ATOM     35  C30 UNL     1     -32.810  68.361 -24.196  0.00  0.00    +0.037 A 
BRANCH  33  36
ATOM     36  C28 UNL     1     -31.230  64.947 -23.620  0.00  0.00    +0.208 A 
ATOM     37  N3  UNL     1     -31.559  63.695 -23.236  0.00  0.00    -0.106 NA
ATOM     38  N4  UNL     1     -30.526  62.935 -23.562  0.00  0.00    -0.021 NA
ATOM     39  N5  UNL     1     -29.590  63.677 -24.130  0.00  0.00    -0.021 NA
ATOM     40  N6  UNL     1     -29.998  64.935 -24.177  0.00  0.00    -0.106 NA
ENDBRANCH  33  36
ENDBRANCH  29  30
ENDBRANCH  28  29
ENDBRANCH  27  28
ENDBRANCH  26  27
ENDBRANCH  25  26
ENDBRANCH  24  25
ENDBRANCH   6  24
TORSDOF 11
ENDMDL
MODEL 8
REMARK VINA RESULT:      -5.9      2.840      5.123
REMARK  Name = ./data/4wxx_site_bc02/pdb/l0c1.pdb
REMARK  11 active torsions:
REMARK  status: ('A' for Active; 'I' for Inactive)
REMARK    1  A    between atoms: O1_2  and  C2_3
REMARK    2  A    between atoms: C5_6  and  C6_7
REMARK    3  A    between atoms: N2_9  and  C7_10
REMARK    4  A    between atoms: C19_23  and  O3_24
REMARK    5  A    between atoms: O3_24  and  C20_25
REMARK    6  A    between atoms: C20_25  and  C21_26
REMARK    7  A    between atoms: C21_26  and  C22_27
REMARK    8  A    between atoms: C22_27  and  C23_28
REMARK    9  A    between atoms: C23_28  and  O4_29
REMARK   10  A    between atoms: O4_29  and  C24_30
REMARK   11  A    between atoms: C27_33  and  C28_34
REMARK                            x       y       z     vdW  Elec       q    Type
REMARK                         _______ _______ _______ _____ _____    ______ ____
ROOT
ATOM      1  C2  UNL     1     -35.658  68.827 -26.352  0.00  0.00    +0.172 A 
ATOM      2  C3  UNL     1     -34.846  67.746 -26.733  0.00  0.00    +0.040 A 
ATOM      3  C4  UNL     1     -35.009  66.493 -26.137  0.00  0.00    +0.005 A 
ATOM      4  C5  UNL     1     -35.981  66.290 -25.143  0.00  0.00    +0.019 A 
ATOM      5  C18 UNL     1     -36.822  67.361 -24.801  0.00  0.00    +0.041 A 
ATOM      6  C19 UNL     1     -36.658  68.632 -25.387  0.00  0.00    +0.172 A 
ENDROOT
BRANCH   4   7
ATOM      7  C6  UNL     1     -36.058  64.979 -24.440  0.00  0.00    +0.086 C 
ATOM      8  N1  UNL     1     -36.303  64.912 -23.169  0.00  0.00    -0.171 NA
ATOM      9  N2  UNL     1     -36.542  63.587 -22.802  0.00  0.00    -0.222 N 
ATOM     10  C14 UNL     1     -36.453  62.817 -23.837  0.00  0.00    +0.257 C 
ATOM     11  O2  UNL     1     -36.661  61.440 -23.781  0.00  0.00    -0.270 OA
ATOM     12  C15 UNL     1     -36.094  63.591 -25.072  0.00  0.00    +0.110 C 
ATOM     13  C16 UNL     1     -34.720  63.122 -25.584  0.00  0.00    +0.015 C 
ATOM     14  C17 UNL     1     -37.204  63.458 -26.132  0.00  0.00    +0.015 C 
BRANCH   9  15
ATOM     15  C7  UNL     1     -36.849  63.142 -21.434  0.00  0.00    +0.108 C 
ATOM     16  C8  UNL     1     -38.360  62.813 -21.271  0.00  0.00    +0.024 C 
ATOM     17  C9  UNL     1     -38.612  61.712 -20.228  0.00  0.00    +0.002 C 
ATOM     18  C10 UNL     1     -38.490  62.186 -18.776  0.00  0.00    +0.000 C 
ATOM     19  C11 UNL     1     -37.105  62.760 -18.437  0.00  0.00    +0.000 C 
ATOM     20  C12 UNL     1     -36.919  64.172 -19.012  0.00  0.00    +0.002 C 
ATOM     21  C13 UNL     1     -36.312  64.195 -20.425  0.00  0.00    +0.024 C 
ENDBRANCH   9  15
ENDBRANCH   4   7
BRANCH   1  23
ATOM     22  C1  UNL     1     -34.349  70.924 -26.743  0.00  0.00    +0.253 C 
ATOM     23  O1  UNL     1     -35.505  70.110 -26.906  0.00  0.00    -0.468 OA
ENDBRANCH   1  23
BRANCH   6  24
ATOM     24  O3  UNL     1     -37.465  69.734 -25.036  0.00  0.00    -0.472 OA
BRANCH  24  25
ATOM     25  C20 UNL     1     -37.722  70.181 -23.703  0.00  0.00    +0.206 C 
BRANCH  25  26
ATOM     26  C21 UNL     1     -36.953  71.477 -23.407  0.00  0.00    +0.051 C 
BRANCH  26  27
ATOM     27  C22 UNL     1     -36.446  71.489 -21.959  0.00  0.00    +0.051 C 
BRANCH  27  28
ATOM     28  C23 UNL     1     -35.042  72.093 -21.864  0.00  0.00    +0.206 C 
BRANCH  28  29
ATOM     29  O4  UNL     1     -34.115  71.318 -22.624  0.00  0.00    -0.475 OA
BRANCH  29  30
ATOM     30  C24 UNL     1     -33.584  70.073 -22.246  0.00  0.00    +0.139 A 
ATOM     31  C25 UNL     1     -32.892  69.869 -21.038  0.00  0.00    +0.037 A 
ATOM     32  C26 UNL     1     -32.409  68.598 -20.706  0.00  0.00    +0.006 A 
ATOM     33  C27 UNL     1     -32.599  67.505 -21.574  0.00  0.00    +0.040 A 
ATOM     34  C29 UNL     1     -33.279  67.724 -22.787  0.00  0.00    +0.006 A 
ATOM     35  C30 UNL     1     -33.768  68.993 -23.114  0.00  0.00    +0.037 A 
BRANCH  33  36
ATOM     36  C28 UNL     1     -32.103  66.145 -21.215  0.00  0.00    +0.208 A 
ATOM     37  N3  UNL     1     -32.881  65.068 -20.979  0.00  0.00    -0.106 NA
ATOM     38  N4  UNL     1     -32.051  64.079 -20.692  0.00  0.00    -0.021 NA
ATOM     39  N5  UNL     1     -30.803  64.516 -20.747  0.00  0.00    -0.021 NA
ATOM     40  N6  UNL     1     -30.803  65.800 -21.067  0.00  0.00    -0.106 NA
ENDBRANCH  33  36
ENDBRANCH  29  30
ENDBRANCH  28  29
ENDBRANCH  27  28
ENDBRANCH  26  27
ENDBRANCH  25  26
ENDBRANCH  24  25
ENDBRANCH   6  24
TORSDOF 11
ENDMDL
MODEL 9
REMARK VINA RESULT:      -5.0      2.892      4.568
REMARK  Name = ./data/4wxx_site_bc02/pdb/l0c1.pdb
REMARK  11 active torsions:
REMARK  status: ('A' for Active; 'I' for Inactive)
REMARK    1  A    between atoms: O1_2  and  C2_3
REMARK    2  A    between atoms: C5_6  and  C6_7
REMARK    3  A    between atoms: N2_9  and  C7_10
REMARK    4  A    between atoms: C19_23  and  O3_24
REMARK    5  A    between atoms: O3_24  and  C20_25
REMARK    6  A    between atoms: C20_25  and  C21_26
REMARK    7  A    between atoms: C21_26  and  C22_27
REMARK    8  A    between atoms: C22_27  and  C23_28
REMARK    9  A    between atoms: C23_28  and  O4_29
REMARK   10  A    between atoms: O4_29  and  C24_30
REMARK   11  A    between atoms: C27_33  and  C28_34
REMARK                            x       y       z     vdW  Elec       q    Type
REMARK                         _______ _______ _______ _____ _____    ______ ____
ROOT
ATOM      1  C2  UNL     1     -36.099  65.402 -26.412  0.00  0.00    +0.172 A 
ATOM      2  C3  UNL     1     -37.421  64.986 -26.185  0.00  0.00    +0.040 A 
ATOM      3  C4  UNL     1     -37.811  64.516 -24.928  0.00  0.00    +0.005 A 
ATOM      4  C5  UNL     1     -36.889  64.444 -23.870  0.00  0.00    +0.019 A 
ATOM      5  C18 UNL     1     -35.581  64.907 -24.089  0.00  0.00    +0.041 A 
ATOM      6  C19 UNL     1     -35.176  65.371 -25.356  0.00  0.00    +0.172 A 
ENDROOT
BRANCH   4   7
ATOM      7  C6  UNL     1     -37.295  63.832 -22.574  0.00  0.00    +0.086 C 
ATOM      8  N1  UNL     1     -38.336  63.065 -22.492  0.00  0.00    -0.171 NA
ATOM      9  N2  UNL     1     -38.373  62.448 -21.241  0.00  0.00    -0.222 N 
ATOM     10  C14 UNL     1     -37.356  62.820 -20.533  0.00  0.00    +0.257 C 
ATOM     11  O2  UNL     1     -37.115  62.353 -19.243  0.00  0.00    -0.270 OA
ATOM     12  C15 UNL     1     -36.500  63.806 -21.273  0.00  0.00    +0.110 C 
ATOM     13  C16 UNL     1     -36.515  65.152 -20.526  0.00  0.00    +0.015 C 
ATOM     14  C17 UNL     1     -35.077  63.245 -21.466  0.00  0.00    +0.015 C 
BRANCH   9  15
ATOM     15  C7  UNL     1     -39.420  61.513 -20.800  0.00  0.00    +0.108 C 
ATOM     16  C8  UNL     1     -40.630  61.516 -21.777  0.00  0.00    +0.024 C 
ATOM     17  C9  UNL     1     -41.343  60.155 -21.833  0.00  0.00    +0.002 C 
ATOM     18  C10 UNL     1     -42.235  59.867 -20.621  0.00  0.00    +0.000 C 
ATOM     19  C11 UNL     1     -41.473  59.874 -19.286  0.00  0.00    +0.000 C 
ATOM     20  C12 UNL     1     -41.149  61.303 -18.826  0.00  0.00    +0.002 C 
ATOM     21  C13 UNL     1     -39.791  61.825 -19.324  0.00  0.00    +0.024 C 
ENDBRANCH   9  15
ENDBRANCH   4   7
BRANCH   1  23
ATOM     22  C1  UNL     1     -35.786  67.191 -28.135  0.00  0.00    +0.253 C 
ATOM     23  O1  UNL     1     -35.662  65.851 -27.670  0.00  0.00    -0.468 OA
ENDBRANCH   1  23
BRANCH   6  24
ATOM     24  O3  UNL     1     -33.860  65.808 -25.614  0.00  0.00    -0.472 OA
BRANCH  24  25
ATOM     25  C20 UNL     1     -32.715  65.507 -24.812  0.00  0.00    +0.206 C 
BRANCH  25  26
ATOM     26  C21 UNL     1     -31.659  66.615 -24.934  0.00  0.00    +0.051 C 
BRANCH  26  27
ATOM     27  C22 UNL     1     -32.252  67.976 -24.543  0.00  0.00    +0.051 C 
BRANCH  27  28
ATOM     28  C23 UNL     1     -32.934  67.915 -23.174  0.00  0.00    +0.206 C 
BRANCH  28  29
ATOM     29  O4  UNL     1     -33.982  68.881 -23.097  0.00  0.00    -0.475 OA
BRANCH  29  30
ATOM     30  C24 UNL     1     -35.301  68.695 -23.544  0.00  0.00    +0.139 A 
ATOM     31  C25 UNL     1     -36.305  68.107 -22.751  0.00  0.00    +0.037 A 
ATOM     32  C26 UNL     1     -37.608  67.973 -23.245  0.00  0.00    +0.006 A 
ATOM     33  C27 UNL     1     -37.936  68.414 -24.541  0.00  0.00    +0.040 A 
ATOM     34  C29 UNL     1     -36.921  68.986 -25.332  0.00  0.00    +0.006 A 
ATOM     35  C30 UNL     1     -35.622  69.126 -24.835  0.00  0.00    +0.037 A 
BRANCH  33  36
ATOM     36  C28 UNL     1     -39.328  68.290 -25.063  0.00  0.00    +0.208 A 
ATOM     37  N3  UNL     1     -40.240  67.386 -24.646  0.00  0.00    -0.106 NA
ATOM     38  N4  UNL     1     -41.329  67.614 -25.361  0.00  0.00    -0.021 NA
ATOM     39  N5  UNL     1     -41.111  68.620 -26.192  0.00  0.00    -0.021 NA
ATOM     40  N6  UNL     1     -39.873  69.060 -26.032  0.00  0.00    -0.106 NA
ENDBRANCH  33  36
ENDBRANCH  29  30
ENDBRANCH  28  29
ENDBRANCH  27  28
ENDBRANCH  26  27
ENDBRANCH  25  26
ENDBRANCH  24  25
ENDBRANCH   6  24
TORSDOF 11
ENDMDL
