MODEL 1
REMARK VINA RESULT:      -9.5      0.000      0.000
REMARK  Name = ./data/4wxx_site_bc02/pdb/l1c1.pdb
REMARK  11 active torsions:
REMARK  status: ('A' for Active; 'I' for Inactive)
REMARK    1  A    between atoms: O1_2  and  C2_3
REMARK    2  A    between atoms: C5_6  and  C6_7
REMARK    3  A    between atoms: N2_9  and  C7_10
REMARK    4  A    between atoms: C22_26  and  O3_27
REMARK    5  A    between atoms: O3_27  and  C23_28
REMARK    6  A    between atoms: C23_28  and  C24_29
REMARK    7  A    between atoms: C24_29  and  C25_30
REMARK    8  A    between atoms: C25_30  and  C26_31
REMARK    9  A    between atoms: C26_31  and  O4_32
REMARK   10  A    between atoms: O4_32  and  C27_33
REMARK   11  A    between atoms: C30_36  and  C31_37
REMARK                            x       y       z     vdW  Elec       q    Type
REMARK                         _______ _______ _______ _____ _____    ______ ____
ROOT
ATOM      1  C2  UNL     1     -73.835  61.508 -11.016  0.00  0.00    +0.172 A 
ATOM      2  C3  UNL     1     -73.371  60.199 -11.230  0.00  0.00    +0.040 A 
ATOM      3  C4  UNL     1     -72.281  59.960 -12.068  0.00  0.00    +0.005 A 
ATOM      4  C5  UNL     1     -71.615  61.023 -12.706  0.00  0.00    +0.018 A 
ATOM      5  C21 UNL     1     -72.075  62.335 -12.474  0.00  0.00    +0.041 A 
ATOM      6  C22 UNL     1     -73.190  62.581 -11.648  0.00  0.00    +0.172 A 
ENDROOT
BRANCH   4   7
ATOM      7  C6  UNL     1     -70.458  60.793 -13.625  0.00  0.00    +0.079 C 
ATOM      8  N1  UNL     1     -69.395  60.226 -13.143  0.00  0.00    -0.172 NA
ATOM      9  N2  UNL     1     -68.209  59.984 -13.861  0.00  0.00    -0.222 N 
ATOM     10  C14 UNL     1     -68.143  60.178 -15.157  0.00  0.00    +0.253 C 
ATOM     11  O2  UNL     1     -66.984  59.821 -15.854  0.00  0.00    -0.271 OA
ATOM     12  C15 UNL     1     -69.326  60.723 -15.940  0.00  0.00    +0.091 C 
ATOM     13  C16 UNL     1     -68.828  61.712 -17.046  0.00  0.00    +0.035 C 
ATOM     14  C17 UNL     1     -69.824  62.786 -17.389  0.00  0.00    -0.030 C 
ATOM     15  C18 UNL     1     -70.518  63.384 -16.416  0.00  0.00    -0.030 C 
ATOM     16  C19 UNL     1     -70.392  62.875 -15.011  0.00  0.00    +0.032 C 
ATOM     17  C20 UNL     1     -70.450  61.334 -15.037  0.00  0.00    +0.056 C 
BRANCH   9  18
ATOM     18  C7  UNL     1     -67.079  59.436 -13.075  0.00  0.00    +0.108 C 
ATOM     19  C8  UNL     1     -66.289  60.575 -12.390  0.00  0.00    +0.024 C 
ATOM     20  C9  UNL     1     -64.873  60.168 -11.965  0.00  0.00    +0.002 C 
ATOM     21  C10 UNL     1     -64.840  58.989 -10.980  0.00  0.00    +0.000 C 
ATOM     22  C11 UNL     1     -65.079  57.639 -11.678  0.00  0.00    +0.000 C 
ATOM     23  C12 UNL     1     -66.559  57.231 -11.810  0.00  0.00    +0.002 C 
ATOM     24  C13 UNL     1     -67.565  58.370 -12.063  0.00  0.00    +0.024 C 
ENDBRANCH   9  18
ENDBRANCH   4   7
BRANCH   1  26
ATOM     25  C1  UNL     1     -76.278  61.897 -10.636  0.00  0.00    +0.253 C 
ATOM     26  O1  UNL     1     -74.933  61.785 -10.184  0.00  0.00    -0.468 OA
ENDBRANCH   1  26
BRANCH   6  27
ATOM     27  O3  UNL     1     -73.692  63.875 -11.436  0.00  0.00    -0.472 OA
BRANCH  27  28
ATOM     28  C23 UNL     1     -72.894  65.056 -11.387  0.00  0.00    +0.206 C 
BRANCH  28  29
ATOM     29  C24 UNL     1     -71.506  64.730 -10.835  0.00  0.00    +0.051 C 
BRANCH  29  30
ATOM     30  C25 UNL     1     -71.179  65.590  -9.605  0.00  0.00    +0.051 C 
BRANCH  30  31
ATOM     31  C26 UNL     1     -69.676  65.649  -9.340  0.00  0.00    +0.206 C 
BRANCH  31  32
ATOM     32  O4  UNL     1     -69.347  66.829  -8.610  0.00  0.00    -0.475 OA
BRANCH  32  33
ATOM     33  C27 UNL     1     -68.517  66.848  -7.478  0.00  0.00    +0.139 A 
ATOM     34  C28 UNL     1     -67.249  67.460  -7.482  0.00  0.00    +0.037 A 
ATOM     35  C29 UNL     1     -66.461  67.459  -6.329  0.00  0.00    +0.006 A 
ATOM     36  C30 UNL     1     -66.921  66.854  -5.145  0.00  0.00    +0.040 A 
ATOM     37  C32 UNL     1     -68.188  66.243  -5.148  0.00  0.00    +0.006 A 
ATOM     38  C33 UNL     1     -68.973  66.238  -6.306  0.00  0.00    +0.037 A 
BRANCH  36  39
ATOM     39  C31 UNL     1     -66.085  66.868  -3.914  0.00  0.00    +0.208 A 
ATOM     40  N3  UNL     1     -65.452  67.952  -3.412  0.00  0.00    -0.106 NA
ATOM     41  N4  UNL     1     -64.840  67.536  -2.316  0.00  0.00    -0.021 NA
ATOM     42  N5  UNL     1     -65.077  66.249  -2.139  0.00  0.00    -0.021 NA
ATOM     43  N6  UNL     1     -65.849  65.802  -3.116  0.00  0.00    -0.106 NA
ENDBRANCH  36  39
ENDBRANCH  32  33
ENDBRANCH  31  32
ENDBRANCH  30  31
ENDBRANCH  29  30
ENDBRANCH  28  29
ENDBRANCH  27  28
ENDBRANCH   6  27
TORSDOF 11
ENDMDL
MODEL 2
REMARK VINA RESULT:      -7.2      1.964      2.544
REMARK  Name = ./data/4wxx_site_bc02/pdb/l1c1.pdb
REMARK  11 active torsions:
REMARK  status: ('A' for Active; 'I' for Inactive)
REMARK    1  A    between atoms: O1_2  and  C2_3
REMARK    2  A    between atoms: C5_6  and  C6_7
REMARK    3  A    between atoms: N2_9  and  C7_10
REMARK    4  A    between atoms: C22_26  and  O3_27
REMARK    5  A    between atoms: O3_27  and  C23_28
REMARK    6  A    between atoms: C23_28  and  C24_29
REMARK    7  A    between atoms: C24_29  and  C25_30
REMARK    8  A    between atoms: C25_30  and  C26_31
REMARK    9  A    between atoms: C26_31  and  O4_32
REMARK   10  A    between atoms: O4_32  and  C27_33
REMARK   11  A    between atoms: C30_36  and  C31_37
REMARK                            x       y       z     vdW  Elec       q    Type
REMARK                         _______ _______ _______ _____ _____    ______ ____
ROOT
ATOM      1  C2  UNL     1     -74.020  60.143 -11.007  0.00  0.00    +0.172 A 
ATOM      2  C3  UNL     1     -73.422  58.924 -11.371  0.00  0.00    +0.040 A 
ATOM      3  C4  UNL     1     -72.169  58.903 -11.987  0.00  0.00    +0.005 A 
ATOM      4  C5  UNL     1     -71.472  60.099 -12.243  0.00  0.00    +0.018 A 
ATOM      5  C21 UNL     1     -72.070  61.317 -11.860  0.00  0.00    +0.041 A 
ATOM      6  C22 UNL     1     -73.345  61.345 -11.261  0.00  0.00    +0.172 A 
ENDROOT
BRANCH   4   7
ATOM      7  C6  UNL     1     -70.138  60.106 -12.920  0.00  0.00    +0.079 C 
ATOM      8  N1  UNL     1     -69.203  59.344 -12.441  0.00  0.00    -0.172 NA
ATOM      9  N2  UNL     1     -67.885  59.273 -12.930  0.00  0.00    -0.222 N 
ATOM     10  C14 UNL     1     -67.536  59.875 -14.042  0.00  0.00    +0.253 C 
ATOM     11  O2  UNL     1     -66.249  59.690 -14.556  0.00  0.00    -0.271 OA
ATOM     12  C15 UNL     1     -68.522  60.722 -14.831  0.00  0.00    +0.091 C 
ATOM     13  C16 UNL     1     -67.800  61.982 -15.412  0.00  0.00    +0.035 C 
ATOM     14  C17 UNL     1     -68.705  63.173 -15.582  0.00  0.00    -0.030 C 
ATOM     15  C18 UNL     1     -69.602  63.464 -14.635  0.00  0.00    -0.030 C 
ATOM     16  C19 UNL     1     -69.786  62.518 -13.487  0.00  0.00    +0.032 C 
ATOM     17  C20 UNL     1     -69.823  61.077 -14.036  0.00  0.00    +0.056 C 
BRANCH   9  18
ATOM     18  C7  UNL     1     -66.953  58.426 -12.151  0.00  0.00    +0.108 C 
ATOM     19  C8  UNL     1     -66.862  57.010 -12.762  0.00  0.00    +0.024 C 
ATOM     20  C9  UNL     1     -66.319  55.956 -11.789  0.00  0.00    +0.002 C 
ATOM     21  C10 UNL     1     -64.911  56.272 -11.262  0.00  0.00    +0.000 C 
ATOM     22  C11 UNL     1     -64.925  57.355 -10.170  0.00  0.00    +0.000 C 
ATOM     23  C12 UNL     1     -64.840  58.802 -10.692  0.00  0.00    +0.002 C 
ATOM     24  C13 UNL     1     -65.563  59.097 -12.019  0.00  0.00    +0.024 C 
ENDBRANCH   9  18
ENDBRANCH   4   7
BRANCH   1  26
ATOM     25  C1  UNL     1     -75.909  59.106  -9.736  0.00  0.00    +0.253 C 
ATOM     26  O1  UNL     1     -75.281  60.201 -10.393  0.00  0.00    -0.468 OA
ENDBRANCH   1  26
BRANCH   6  27
ATOM     27  O3  UNL     1     -73.978  62.548 -10.910  0.00  0.00    -0.472 OA
BRANCH  27  28
ATOM     28  C23 UNL     1     -74.433  63.527 -11.842  0.00  0.00    +0.206 C 
BRANCH  28  29
ATOM     29  C24 UNL     1     -73.554  64.776 -11.766  0.00  0.00    +0.051 C 
BRANCH  29  30
ATOM     30  C25 UNL     1     -72.062  64.410 -11.812  0.00  0.00    +0.051 C 
BRANCH  30  31
ATOM     31  C26 UNL     1     -71.193  65.507 -11.198  0.00  0.00    +0.206 C 
BRANCH  31  32
ATOM     32  O4  UNL     1     -71.336  65.516  -9.780  0.00  0.00    -0.475 OA
BRANCH  32  33
ATOM     33  C27 UNL     1     -70.521  66.261  -8.912  0.00  0.00    +0.139 A 
ATOM     34  C28 UNL     1     -69.175  65.928  -8.671  0.00  0.00    +0.037 A 
ATOM     35  C29 UNL     1     -68.401  66.702  -7.802  0.00  0.00    +0.006 A 
ATOM     36  C30 UNL     1     -68.949  67.828  -7.161  0.00  0.00    +0.040 A 
ATOM     37  C32 UNL     1     -70.297  68.153  -7.405  0.00  0.00    +0.006 A 
ATOM     38  C33 UNL     1     -71.072  67.373  -8.268  0.00  0.00    +0.037 A 
BRANCH  36  39
ATOM     39  C31 UNL     1     -68.118  68.658  -6.248  0.00  0.00    +0.208 A 
ATOM     40  N3  UNL     1     -68.513  69.127  -5.043  0.00  0.00    -0.106 NA
ATOM     41  N4  UNL     1     -67.480  69.798  -4.562  0.00  0.00    -0.021 NA
ATOM     42  N5  UNL     1     -66.482  69.754  -5.427  0.00  0.00    -0.021 NA
ATOM     43  N6  UNL     1     -66.846  69.051  -6.487  0.00  0.00    -0.106 NA
ENDBRANCH  36  39
ENDBRANCH  32  33
ENDBRANCH  31  32
ENDBRANCH  30  31
ENDBRANCH  29  30
ENDBRANCH  28  29
ENDBRANCH  27  28
ENDBRANCH   6  27
TORSDOF 11
ENDMDL
MODEL 3
REMARK VINA RESULT:      -7.0      5.080      7.657
REMARK  Name = ./data/4wxx_site_bc02/pdb/l1c1.pdb
REMARK  11 active torsions:
REMARK  status: ('A' for Active; 'I' for Inactive)
REMARK    1  A    between atoms: O1_2  and  C2_3
REMARK    2  A    between atoms: C5_6  and  C6_7
REMARK    3  A    between atoms: N2_9  and  C7_10
REMARK    4  A    between atoms: C22_26  and  O3_27
REMARK    5  A    between atoms: O3_27  and  C23_28
REMARK    6  A    between atoms: C23_28  and  C24_29
REMARK    7  A    between atoms: C24_29  and  C25_30
REMARK    8  A    between atoms: C25_30  and  C26_31
REMARK    9  A    between atoms: C26_31  and  O4_32
REMARK   10  A    between atoms: O4_32  and  C27_33
REMARK   11  A    between atoms: C30_36  and  C31_37
REMARK                            x       y       z     vdW  Elec       q    Type
REMARK                         _______ _______ _______ _____ _____    ______ ____
ROOT
ATOM      1  C2  UNL     1     -74.967  59.205 -10.770  0.00  0.00    +0.172 A 
ATOM      2  C3  UNL     1     -73.907  58.368 -11.161  0.00  0.00    +0.040 A 
ATOM      3  C4  UNL     1     -72.723  58.909 -11.663  0.00  0.00    +0.005 A 
ATOM      4  C5  UNL     1     -72.558  60.302 -11.776  0.00  0.00    +0.018 A 
ATOM      5  C21 UNL     1     -73.618  61.137 -11.367  0.00  0.00    +0.041 A 
ATOM      6  C22 UNL     1     -74.825  60.596 -10.882  0.00  0.00    +0.172 A 
ENDROOT
BRANCH   4   7
ATOM      7  C6  UNL     1     -71.307  60.907 -12.330  0.00  0.00    +0.079 C 
ATOM      8  N1  UNL     1     -70.329  60.114 -12.643  0.00  0.00    -0.172 NA
ATOM      9  N2  UNL     1     -69.073  60.527 -13.128  0.00  0.00    -0.222 N 
ATOM     10  C14 UNL     1     -68.846  61.776 -13.459  0.00  0.00    +0.253 C 
ATOM     11  O2  UNL     1     -67.625  62.128 -14.042  0.00  0.00    -0.271 OA
ATOM     12  C15 UNL     1     -69.909  62.850 -13.288  0.00  0.00    +0.091 C 
ATOM     13  C16 UNL     1     -69.249  64.184 -12.806  0.00  0.00    +0.035 C 
ATOM     14  C17 UNL     1     -70.162  65.043 -11.972  0.00  0.00    -0.030 C 
ATOM     15  C18 UNL     1     -70.947  64.477 -11.051  0.00  0.00    -0.030 C 
ATOM     16  C19 UNL     1     -71.007  62.981 -10.962  0.00  0.00    +0.032 C 
ATOM     17  C20 UNL     1     -71.112  62.405 -12.390  0.00  0.00    +0.056 C 
BRANCH   9  18
ATOM     18  C7  UNL     1     -68.065  59.457 -13.302  0.00  0.00    +0.108 C 
ATOM     19  C8  UNL     1     -67.556  59.419 -14.761  0.00  0.00    +0.024 C 
ATOM     20  C9  UNL     1     -66.895  58.089 -15.145  0.00  0.00    +0.002 C 
ATOM     21  C10 UNL     1     -65.682  57.730 -14.272  0.00  0.00    +0.000 C 
ATOM     22  C11 UNL     1     -66.095  57.191 -12.892  0.00  0.00    +0.000 C 
ATOM     23  C12 UNL     1     -66.303  58.270 -11.811  0.00  0.00    +0.002 C 
ATOM     24  C13 UNL     1     -66.908  59.605 -12.282  0.00  0.00    +0.024 C 
ENDBRANCH   9  18
ENDBRANCH   4   7
BRANCH   1  26
ATOM     25  C1  UNL     1     -76.495  58.600  -8.883  0.00  0.00    +0.253 C 
ATOM     26  O1  UNL     1     -76.175  58.695 -10.267  0.00  0.00    -0.468 OA
ENDBRANCH   1  26
BRANCH   6  27
ATOM     27  O3  UNL     1     -75.909  61.405 -10.509  0.00  0.00    -0.472 OA
BRANCH  27  28
ATOM     28  C23 UNL     1     -77.277  61.107 -10.783  0.00  0.00    +0.206 C 
BRANCH  28  29
ATOM     29  C24 UNL     1     -77.820  62.060 -11.848  0.00  0.00    +0.051 C 
BRANCH  29  30
ATOM     30  C25 UNL     1     -76.758  62.367 -12.915  0.00  0.00    +0.051 C 
BRANCH  30  31
ATOM     31  C26 UNL     1     -76.318  63.830 -12.868  0.00  0.00    +0.206 C 
BRANCH  31  32
ATOM     32  O4  UNL     1     -74.903  63.916 -12.712  0.00  0.00    -0.475 OA
BRANCH  32  33
ATOM     33  C27 UNL     1     -73.982  63.682 -13.746  0.00  0.00    +0.139 A 
ATOM     34  C28 UNL     1     -73.933  62.465 -14.451  0.00  0.00    +0.037 A 
ATOM     35  C29 UNL     1     -73.002  62.279 -15.476  0.00  0.00    +0.006 A 
ATOM     36  C30 UNL     1     -72.104  63.305 -15.826  0.00  0.00    +0.040 A 
ATOM     37  C32 UNL     1     -72.158  64.519 -15.115  0.00  0.00    +0.006 A 
ATOM     38  C33 UNL     1     -73.085  64.700 -14.084  0.00  0.00    +0.037 A 
BRANCH  36  39
ATOM     39  C31 UNL     1     -71.124  63.110 -16.927  0.00  0.00    +0.208 A 
ATOM     40  N3  UNL     1     -71.281  62.264 -17.970  0.00  0.00    -0.106 NA
ATOM     41  N4  UNL     1     -70.197  62.408 -18.715  0.00  0.00    -0.021 NA
ATOM     42  N5  UNL     1     -69.396  63.302 -18.164  0.00  0.00    -0.021 NA
ATOM     43  N6  UNL     1     -69.944  63.759 -17.050  0.00  0.00    -0.106 NA
ENDBRANCH  36  39
ENDBRANCH  32  33
ENDBRANCH  31  32
ENDBRANCH  30  31
ENDBRANCH  29  30
ENDBRANCH  28  29
ENDBRANCH  27  28
ENDBRANCH   6  27
TORSDOF 11
ENDMDL
