MODEL 1
REMARK VINA RESULT:      -9.2      0.000      0.000
REMARK  Name = ./data/4wxx_site_bc02/pdb/l0c0.pdb
REMARK  11 active torsions:
REMARK  status: ('A' for Active; 'I' for Inactive)
REMARK    1  A    between atoms: O1_2  and  C2_3
REMARK    2  A    between atoms: C5_6  and  C6_7
REMARK    3  A    between atoms: N2_9  and  C7_10
REMARK    4  A    between atoms: C19_23  and  O3_24
REMARK    5  A    between atoms: O3_24  and  C20_25
REMARK    6  A    between atoms: C20_25  and  C21_26
REMARK    7  A    between atoms: C21_26  and  C22_27
REMARK    8  A    between atoms: C22_27  and  C23_28
REMARK    9  A    between atoms: C23_28  and  O4_29
REMARK   10  A    between atoms: O4_29  and  C24_30
REMARK   11  A    between atoms: C27_33  and  C28_34
REMARK                            x       y       z     vdW  Elec       q    Type
REMARK                         _______ _______ _______ _____ _____    ______ ____
ROOT
ATOM      1  C2  UNL     1     -72.161  63.709 -14.444  0.00  0.00    +0.172 A 
ATOM      2  C3  UNL     1     -71.957  63.167 -15.726  0.00  0.00    +0.040 A 
ATOM      3  C4  UNL     1     -70.738  62.573 -16.064  0.00  0.00    +0.005 A 
ATOM      4  C5  UNL     1     -69.692  62.508 -15.129  0.00  0.00    +0.019 A 
ATOM      5  C18 UNL     1     -69.894  63.075 -13.856  0.00  0.00    +0.041 A 
ATOM      6  C19 UNL     1     -71.127  63.654 -13.500  0.00  0.00    +0.172 A 
ENDROOT
BRANCH   4   7
ATOM      7  C6  UNL     1     -68.389  61.841 -15.420  0.00  0.00    +0.086 C 
ATOM      8  N1  UNL     1     -67.636  61.414 -14.456  0.00  0.00    -0.171 NA
ATOM      9  N2  UNL     1     -66.497  60.798 -14.968  0.00  0.00    -0.222 N 
ATOM     10  C14 UNL     1     -66.518  60.834 -16.259  0.00  0.00    +0.257 C 
ATOM     11  O2  UNL     1     -65.507  60.298 -17.057  0.00  0.00    -0.270 OA
ATOM     12  C15 UNL     1     -67.762  61.510 -16.767  0.00  0.00    +0.110 C 
ATOM     13  C16 UNL     1     -67.387  62.765 -17.570  0.00  0.00    +0.015 C 
ATOM     14  C17 UNL     1     -68.598  60.505 -17.580  0.00  0.00    +0.015 C 
BRANCH   9  15
ATOM     15  C7  UNL     1     -65.469  60.181 -14.119  0.00  0.00    +0.108 C 
ATOM     16  C8  UNL     1     -65.625  60.697 -12.672  0.00  0.00    +0.024 C 
ATOM     17  C9  UNL     1     -64.840  59.885 -11.627  0.00  0.00    +0.002 C 
ATOM     18  C10 UNL     1     -65.672  58.729 -11.047  0.00  0.00    +0.000 C 
ATOM     19  C11 UNL     1     -65.832  57.539 -12.001  0.00  0.00    +0.000 C 
ATOM     20  C12 UNL     1     -66.485  57.907 -13.342  0.00  0.00    +0.002 C 
ATOM     21  C13 UNL     1     -65.511  58.641 -14.284  0.00  0.00    +0.024 C 
ENDBRANCH   9  15
ENDBRANCH   4   7
BRANCH   1  23
ATOM     22  C1  UNL     1     -74.511  63.600 -13.589  0.00  0.00    +0.253 C 
ATOM     23  O1  UNL     1     -73.374  64.309 -14.071  0.00  0.00    -0.468 OA
ENDBRANCH   1  23
BRANCH   6  24
ATOM     24  O3  UNL     1     -71.363  64.184 -12.218  0.00  0.00    -0.472 OA
BRANCH  24  25
ATOM     25  C20 UNL     1     -71.561  63.415 -11.028  0.00  0.00    +0.206 C 
BRANCH  25  26
ATOM     26  C21 UNL     1     -73.031  62.998 -10.879  0.00  0.00    +0.051 C 
BRANCH  26  27
ATOM     27  C22 UNL     1     -73.141  61.534 -10.441  0.00  0.00    +0.051 C 
BRANCH  27  28
ATOM     28  C23 UNL     1     -73.165  60.595 -11.651  0.00  0.00    +0.206 C 
BRANCH  28  29
ATOM     29  O4  UNL     1     -74.497  60.453 -12.147  0.00  0.00    -0.475 OA
BRANCH  29  30
ATOM     30  C24 UNL     1     -75.664  60.527 -11.368  0.00  0.00    +0.139 A 
ATOM     31  C25 UNL     1     -76.723  61.407 -11.663  0.00  0.00    +0.037 A 
ATOM     32  C26 UNL     1     -77.862  61.441 -10.853  0.00  0.00    +0.006 A 
ATOM     33  C27 UNL     1     -77.970  60.594  -9.736  0.00  0.00    +0.040 A 
ATOM     34  C29 UNL     1     -76.913  59.713  -9.449  0.00  0.00    +0.006 A 
ATOM     35  C30 UNL     1     -75.773  59.682 -10.259  0.00  0.00    +0.037 A 
BRANCH  33  36
ATOM     36  C28 UNL     1     -79.180  60.629  -8.878  0.00  0.00    +0.208 A 
ATOM     37  N3  UNL     1     -79.615  61.705  -8.186  0.00  0.00    -0.106 NA
ATOM     38  N4  UNL     1     -80.708  61.307  -7.555  0.00  0.00    -0.021 NA
ATOM     39  N5  UNL     1     -80.947  60.039  -7.842  0.00  0.00    -0.021 NA
ATOM     40  N6  UNL     1     -80.014  59.588  -8.663  0.00  0.00    -0.106 NA
ENDBRANCH  33  36
ENDBRANCH  29  30
ENDBRANCH  28  29
ENDBRANCH  27  28
ENDBRANCH  26  27
ENDBRANCH  25  26
ENDBRANCH  24  25
ENDBRANCH   6  24
TORSDOF 11
ENDMDL
MODEL 2
REMARK VINA RESULT:      -8.9      5.303      7.557
REMARK  Name = ./data/4wxx_site_bc02/pdb/l0c0.pdb
REMARK  11 active torsions:
REMARK  status: ('A' for Active; 'I' for Inactive)
REMARK    1  A    between atoms: O1_2  and  C2_3
REMARK    2  A    between atoms: C5_6  and  C6_7
REMARK    3  A    between atoms: N2_9  and  C7_10
REMARK    4  A    between atoms: C19_23  and  O3_24
REMARK    5  A    between atoms: O3_24  and  C20_25
REMARK    6  A    between atoms: C20_25  and  C21_26
REMARK    7  A    between atoms: C21_26  and  C22_27
REMARK    8  A    between atoms: C22_27  and  C23_28
REMARK    9  A    between atoms: C23_28  and  O4_29
REMARK   10  A    between atoms: O4_29  and  C24_30
REMARK   11  A    between atoms: C27_33  and  C28_34
REMARK                            x       y       z     vdW  Elec       q    Type
REMARK                         _______ _______ _______ _____ _____    ______ ____
ROOT
ATOM      1  C2  UNL     1     -73.238  60.910 -11.889  0.00  0.00    +0.172 A 
ATOM      2  C3  UNL     1     -72.473  59.757 -11.632  0.00  0.00    +0.040 A 
ATOM      3  C4  UNL     1     -71.167  59.646 -12.117  0.00  0.00    +0.005 A 
ATOM      4  C5  UNL     1     -70.595  60.681 -12.874  0.00  0.00    +0.019 A 
ATOM      5  C18 UNL     1     -71.375  61.820 -13.149  0.00  0.00    +0.041 A 
ATOM      6  C19 UNL     1     -72.683  61.952 -12.644  0.00  0.00    +0.172 A 
ENDROOT
BRANCH   4   7
ATOM      7  C6  UNL     1     -69.190  60.636 -13.374  0.00  0.00    +0.086 C 
ATOM      8  N1  UNL     1     -68.284  59.961 -12.739  0.00  0.00    -0.171 NA
ATOM      9  N2  UNL     1     -67.066  60.034 -13.410  0.00  0.00    -0.222 N 
ATOM     10  C14 UNL     1     -67.189  60.760 -14.471  0.00  0.00    +0.257 C 
ATOM     11  O2  UNL     1     -66.136  61.021 -15.346  0.00  0.00    -0.270 OA
ATOM     12  C15 UNL     1     -68.598  61.261 -14.629  0.00  0.00    +0.110 C 
ATOM     13  C16 UNL     1     -68.615  62.797 -14.589  0.00  0.00    +0.015 C 
ATOM     14  C17 UNL     1     -69.207  60.688 -15.922  0.00  0.00    +0.015 C 
BRANCH   9  15
ATOM     15  C7  UNL     1     -65.856  59.339 -12.951  0.00  0.00    +0.108 C 
ATOM     16  C8  UNL     1     -65.947  59.106 -11.427  0.00  0.00    +0.024 C 
ATOM     17  C9  UNL     1     -64.917  58.101 -10.882  0.00  0.00    +0.002 C 
ATOM     18  C10 UNL     1     -65.453  56.660 -10.889  0.00  0.00    +0.000 C 
ATOM     19  C11 UNL     1     -65.492  56.020 -12.282  0.00  0.00    +0.000 C 
ATOM     20  C12 UNL     1     -66.343  56.799 -13.296  0.00  0.00    +0.002 C 
ATOM     21  C13 UNL     1     -65.629  58.066 -13.805  0.00  0.00    +0.024 C 
ENDBRANCH   9  15
ENDBRANCH   4   7
BRANCH   1  23
ATOM     22  C1  UNL     1     -74.889  61.479 -10.096  0.00  0.00    +0.253 C 
ATOM     23  O1  UNL     1     -74.551  61.056 -11.413  0.00  0.00    -0.468 OA
ENDBRANCH   1  23
BRANCH   6  24
ATOM     24  O3  UNL     1     -73.461  63.103 -12.868  0.00  0.00    -0.472 OA
BRANCH  24  25
ATOM     25  C20 UNL     1     -73.016  64.450 -12.689  0.00  0.00    +0.206 C 
BRANCH  25  26
ATOM     26  C21 UNL     1     -72.533  64.684 -11.251  0.00  0.00    +0.051 C 
BRANCH  26  27
ATOM     27  C22 UNL     1     -71.049  65.067 -11.230  0.00  0.00    +0.051 C 
BRANCH  27  28
ATOM     28  C23 UNL     1     -70.534  65.205  -9.793  0.00  0.00    +0.206 C 
BRANCH  28  29
ATOM     29  O4  UNL     1     -70.525  66.576  -9.395  0.00  0.00    -0.475 OA
BRANCH  29  30
ATOM     30  C24 UNL     1     -69.920  67.079  -8.230  0.00  0.00    +0.139 A 
ATOM     31  C25 UNL     1     -70.410  68.205  -7.542  0.00  0.00    +0.037 A 
ATOM     32  C26 UNL     1     -69.768  68.663  -6.388  0.00  0.00    +0.006 A 
ATOM     33  C27 UNL     1     -68.628  68.004  -5.894  0.00  0.00    +0.040 A 
ATOM     34  C29 UNL     1     -68.146  66.877  -6.581  0.00  0.00    +0.006 A 
ATOM     35  C30 UNL     1     -68.789  66.422  -7.738  0.00  0.00    +0.037 A 
BRANCH  33  36
ATOM     36  C28 UNL     1     -67.949  68.490  -4.668  0.00  0.00    +0.208 A 
ATOM     37  N3  UNL     1     -67.058  67.783  -3.937  0.00  0.00    -0.106 NA
ATOM     38  N4  UNL     1     -66.708  68.575  -2.936  0.00  0.00    -0.021 NA
ATOM     39  N5  UNL     1     -67.347  69.727  -3.039  0.00  0.00    -0.021 NA
ATOM     40  N6  UNL     1     -68.128  69.706  -4.106  0.00  0.00    -0.106 NA
ENDBRANCH  33  36
ENDBRANCH  29  30
ENDBRANCH  28  29
ENDBRANCH  27  28
ENDBRANCH  26  27
ENDBRANCH  25  26
ENDBRANCH  24  25
ENDBRANCH   6  24
TORSDOF 11
ENDMDL
MODEL 3
REMARK VINA RESULT:      -7.5      1.687      2.982
REMARK  Name = ./data/4wxx_site_bc02/pdb/l0c0.pdb
REMARK  11 active torsions:
REMARK  status: ('A' for Active; 'I' for Inactive)
REMARK    1  A    between atoms: O1_2  and  C2_3
REMARK    2  A    between atoms: C5_6  and  C6_7
REMARK    3  A    between atoms: N2_9  and  C7_10
REMARK    4  A    between atoms: C19_23  and  O3_24
REMARK    5  A    between atoms: O3_24  and  C20_25
REMARK    6  A    between atoms: C20_25  and  C21_26
REMARK    7  A    between atoms: C21_26  and  C22_27
REMARK    8  A    between atoms: C22_27  and  C23_28
REMARK    9  A    between atoms: C23_28  and  O4_29
REMARK   10  A    between atoms: O4_29  and  C24_30
REMARK   11  A    between atoms: C27_33  and  C28_34
REMARK                            x       y       z     vdW  Elec       q    Type
REMARK                         _______ _______ _______ _____ _____    ______ ____
ROOT
ATOM      1  C2  UNL     1     -73.123  60.211 -11.040  0.00  0.00    +0.172 A 
ATOM      2  C3  UNL     1     -72.421  59.113 -11.570  0.00  0.00    +0.040 A 
ATOM      3  C4  UNL     1     -71.263  59.306 -12.327  0.00  0.00    +0.005 A 
ATOM      4  C5  UNL     1     -70.779  60.601 -12.575  0.00  0.00    +0.019 A 
ATOM      5  C18 UNL     1     -71.501  61.696 -12.063  0.00  0.00    +0.041 A 
ATOM      6  C19 UNL     1     -72.655  61.510 -11.279  0.00  0.00    +0.172 A 
ENDROOT
BRANCH   4   7
ATOM      7  C6  UNL     1     -69.520  60.862 -13.334  0.00  0.00    +0.086 C 
ATOM      8  N1  UNL     1     -68.466  60.137 -13.134  0.00  0.00    -0.171 NA
ATOM      9  N2  UNL     1     -67.434  60.540 -13.978  0.00  0.00    -0.222 N 
ATOM     10  C14 UNL     1     -67.824  61.526 -14.714  0.00  0.00    +0.257 C 
ATOM     11  O2  UNL     1     -67.007  62.149 -15.657  0.00  0.00    -0.270 OA
ATOM     12  C15 UNL     1     -69.255  61.891 -14.425  0.00  0.00    +0.110 C 
ATOM     13  C16 UNL     1     -69.333  63.335 -13.907  0.00  0.00    +0.015 C 
ATOM     14  C17 UNL     1     -70.111  61.657 -15.682  0.00  0.00    +0.015 C 
BRANCH   9  15
ATOM     15  C7  UNL     1     -66.121  59.881 -14.009  0.00  0.00    +0.108 C 
ATOM     16  C8  UNL     1     -66.013  58.902 -12.819  0.00  0.00    +0.024 C 
ATOM     17  C9  UNL     1     -64.840  57.911 -12.927  0.00  0.00    +0.002 C 
ATOM     18  C10 UNL     1     -65.242  56.613 -13.645  0.00  0.00    +0.000 C 
ATOM     19  C11 UNL     1     -65.386  56.763 -15.165  0.00  0.00    +0.000 C 
ATOM     20  C12 UNL     1     -66.416  57.823 -15.585  0.00  0.00    +0.002 C 
ATOM     21  C13 UNL     1     -65.882  59.258 -15.407  0.00  0.00    +0.024 C 
ENDBRANCH   9  15
ENDBRANCH   4   7
BRANCH   1  23
ATOM     22  C1  UNL     1     -75.300  59.084 -10.531  0.00  0.00    +0.253 C 
ATOM     23  O1  UNL     1     -74.288  60.052 -10.272  0.00  0.00    -0.468 OA
ENDBRANCH   1  23
BRANCH   6  24
ATOM     24  O3  UNL     1     -73.363  62.589 -10.719  0.00  0.00    -0.472 OA
BRANCH  24  25
ATOM     25  C20 UNL     1     -73.423  63.910 -11.262  0.00  0.00    +0.206 C 
BRANCH  25  26
ATOM     26  C21 UNL     1     -74.579  64.042 -12.264  0.00  0.00    +0.051 C 
BRANCH  26  27
ATOM     27  C22 UNL     1     -74.256  63.307 -13.569  0.00  0.00    +0.051 C 
BRANCH  27  28
ATOM     28  C23 UNL     1     -74.914  61.923 -13.602  0.00  0.00    +0.206 C 
BRANCH  28  29
ATOM     29  O4  UNL     1     -76.334  62.043 -13.502  0.00  0.00    -0.475 OA
BRANCH  29  30
ATOM     30  C24 UNL     1     -77.093  61.764 -12.352  0.00  0.00    +0.139 A 
ATOM     31  C25 UNL     1     -76.616  62.002 -11.049  0.00  0.00    +0.037 A 
ATOM     32  C26 UNL     1     -77.414  61.704  -9.939  0.00  0.00    +0.006 A 
ATOM     33  C27 UNL     1     -78.702  61.169 -10.108  0.00  0.00    +0.040 A 
ATOM     34  C29 UNL     1     -79.175  60.938 -11.411  0.00  0.00    +0.006 A 
ATOM     35  C30 UNL     1     -78.376  61.234 -12.520  0.00  0.00    +0.037 A 
BRANCH  33  36
ATOM     36  C28 UNL     1     -79.548  60.854  -8.930  0.00  0.00    +0.208 A 
ATOM     37  N3  UNL     1     -79.953  61.747  -7.999  0.00  0.00    -0.106 NA
ATOM     38  N4  UNL     1     -80.672  61.057  -7.129  0.00  0.00    -0.021 NA
ATOM     39  N5  UNL     1     -80.718  59.789  -7.501  0.00  0.00    -0.021 NA
ATOM     40  N6  UNL     1     -80.028  59.631  -8.618  0.00  0.00    -0.106 NA
ENDBRANCH  33  36
ENDBRANCH  29  30
ENDBRANCH  28  29
ENDBRANCH  27  28
ENDBRANCH  26  27
ENDBRANCH  25  26
ENDBRANCH  24  25
ENDBRANCH   6  24
TORSDOF 11
ENDMDL
