MODEL 1
REMARK VINA RESULT:      -6.5      0.000      0.000
REMARK  Name = ./data/4wxx_site_bc02/pdb/l1c0.pdb
REMARK  11 active torsions:
REMARK  status: ('A' for Active; 'I' for Inactive)
REMARK    1  A    between atoms: O1_2  and  C2_3
REMARK    2  A    between atoms: C5_6  and  C6_7
REMARK    3  A    between atoms: N2_9  and  C7_10
REMARK    4  A    between atoms: C22_26  and  O3_27
REMARK    5  A    between atoms: O3_27  and  C23_28
REMARK    6  A    between atoms: C23_28  and  C24_29
REMARK    7  A    between atoms: C24_29  and  C25_30
REMARK    8  A    between atoms: C25_30  and  C26_31
REMARK    9  A    between atoms: C26_31  and  O4_32
REMARK   10  A    between atoms: O4_32  and  C27_33
REMARK   11  A    between atoms: C30_36  and  C31_37
REMARK                            x       y       z     vdW  Elec       q    Type
REMARK                         _______ _______ _______ _____ _____    ______ ____
ROOT
ATOM      1  C2  UNL     1     -51.140  45.444 -21.204  0.00  0.00    +0.172 A 
ATOM      2  C3  UNL     1     -51.858  44.322 -21.650  0.00  0.00    +0.040 A 
ATOM      3  C4  UNL     1     -53.076  43.984 -21.061  0.00  0.00    +0.005 A 
ATOM      4  C5  UNL     1     -53.616  44.758 -20.019  0.00  0.00    +0.018 A 
ATOM      5  C21 UNL     1     -52.898  45.890 -19.586  0.00  0.00    +0.041 A 
ATOM      6  C22 UNL     1     -51.653  46.224 -20.159  0.00  0.00    +0.172 A 
ENDROOT
BRANCH   4   7
ATOM      7  C6  UNL     1     -54.924  44.371 -19.406  0.00  0.00    +0.079 C 
ATOM      8  N1  UNL     1     -55.254  43.114 -19.382  0.00  0.00    -0.172 NA
ATOM      9  N2  UNL     1     -56.456  42.619 -18.835  0.00  0.00    -0.222 N 
ATOM     10  C14 UNL     1     -57.208  43.376 -18.067  0.00  0.00    +0.253 C 
ATOM     11  O2  UNL     1     -58.341  42.831 -17.456  0.00  0.00    -0.271 OA
ATOM     12  C15 UNL     1     -56.799  44.815 -17.774  0.00  0.00    +0.091 C 
ATOM     13  C16 UNL     1     -58.000  45.755 -17.546  0.00  0.00    +0.035 C 
ATOM     14  C17 UNL     1     -58.837  45.808 -18.788  0.00  0.00    -0.030 C 
ATOM     15  C18 UNL     1     -58.244  45.873 -19.987  0.00  0.00    -0.030 C 
ATOM     16  C19 UNL     1     -56.743  45.977 -20.124  0.00  0.00    +0.032 C 
ATOM     17  C20 UNL     1     -55.925  45.399 -18.920  0.00  0.00    +0.056 C 
BRANCH   9  18
ATOM     18  C7  UNL     1     -56.770  41.201 -19.109  0.00  0.00    +0.108 C 
ATOM     19  C8  UNL     1     -56.506  40.848 -20.597  0.00  0.00    +0.024 C 
ATOM     20  C9  UNL     1     -57.457  39.760 -21.123  0.00  0.00    +0.002 C 
ATOM     21  C10 UNL     1     -57.072  38.345 -20.681  0.00  0.00    +0.000 C 
ATOM     22  C11 UNL     1     -57.063  38.160 -19.158  0.00  0.00    +0.000 C 
ATOM     23  C12 UNL     1     -55.842  38.823 -18.500  0.00  0.00    +0.002 C 
ATOM     24  C13 UNL     1     -56.079  40.279 -18.068  0.00  0.00    +0.024 C 
ENDBRANCH   9  18
ENDBRANCH   4   7
BRANCH   1  26
ATOM     25  C1  UNL     1     -48.658  45.232 -21.431  0.00  0.00    +0.253 C 
ATOM     26  O1  UNL     1     -49.911  45.816 -21.772  0.00  0.00    -0.468 OA
ENDBRANCH   1  26
BRANCH   6  27
ATOM     27  O3  UNL     1     -50.893  47.323 -19.723  0.00  0.00    -0.472 OA
BRANCH  27  28
ATOM     28  C23 UNL     1     -50.866  47.845 -18.395  0.00  0.00    +0.206 C 
BRANCH  28  29
ATOM     29  C24 UNL     1     -49.777  47.157 -17.568  0.00  0.00    +0.051 C 
BRANCH  29  30
ATOM     30  C25 UNL     1     -50.373  46.095 -16.637  0.00  0.00    +0.051 C 
BRANCH  30  31
ATOM     31  C26 UNL     1     -51.884  46.272 -16.483  0.00  0.00    +0.206 C 
BRANCH  31  32
ATOM     32  O4  UNL     1     -52.216  46.319 -15.096  0.00  0.00    -0.475 OA
BRANCH  32  33
ATOM     33  C27 UNL     1     -51.684  45.470 -14.117  0.00  0.00    +0.139 A 
ATOM     34  C28 UNL     1     -51.117  46.049 -12.980  0.00  0.00    +0.037 A 
ATOM     35  C29 UNL     1     -50.542  45.255 -11.987  0.00  0.00    +0.006 A 
ATOM     36  C30 UNL     1     -50.538  43.852 -12.104  0.00  0.00    +0.040 A 
ATOM     37  C32 UNL     1     -51.133  43.267 -13.240  0.00  0.00    +0.006 A 
ATOM     38  C33 UNL     1     -51.695  44.068 -14.240  0.00  0.00    +0.037 A 
BRANCH  36  39
ATOM     39  C31 UNL     1     -49.913  43.006 -11.054  0.00  0.00    +0.208 A 
ATOM     40  N3  UNL     1     -50.245  41.726 -10.780  0.00  0.00    -0.106 NA
ATOM     41  N4  UNL     1     -49.439  41.347  -9.803  0.00  0.00    -0.021 NA
ATOM     42  N5  UNL     1     -48.640  42.347  -9.476  0.00  0.00    -0.021 NA
ATOM     43  N6  UNL     1     -48.907  43.392 -10.237  0.00  0.00    -0.106 NA
ENDBRANCH  36  39
ENDBRANCH  32  33
ENDBRANCH  31  32
ENDBRANCH  30  31
ENDBRANCH  29  30
ENDBRANCH  28  29
ENDBRANCH  27  28
ENDBRANCH   6  27
TORSDOF 11
ENDMDL
MODEL 2
REMARK VINA RESULT:      -5.9      3.100      8.298
REMARK  Name = ./data/4wxx_site_bc02/pdb/l1c0.pdb
REMARK  11 active torsions:
REMARK  status: ('A' for Active; 'I' for Inactive)
REMARK    1  A    between atoms: O1_2  and  C2_3
REMARK    2  A    between atoms: C5_6  and  C6_7
REMARK    3  A    between atoms: N2_9  and  C7_10
REMARK    4  A    between atoms: C22_26  and  O3_27
REMARK    5  A    between atoms: O3_27  and  C23_28
REMARK    6  A    between atoms: C23_28  and  C24_29
REMARK    7  A    between atoms: C24_29  and  C25_30
REMARK    8  A    between atoms: C25_30  and  C26_31
REMARK    9  A    between atoms: C26_31  and  O4_32
REMARK   10  A    between atoms: O4_32  and  C27_33
REMARK   11  A    between atoms: C30_36  and  C31_37
REMARK                            x       y       z     vdW  Elec       q    Type
REMARK                         _______ _______ _______ _____ _____    ______ ____
ROOT
ATOM      1  C2  UNL     1     -55.065  41.931 -20.748  0.00  0.00    +0.172 A 
ATOM      2  C3  UNL     1     -53.776  41.518 -20.373  0.00  0.00    +0.040 A 
ATOM      3  C4  UNL     1     -52.871  42.431 -19.832  0.00  0.00    +0.005 A 
ATOM      4  C5  UNL     1     -53.228  43.778 -19.643  0.00  0.00    +0.018 A 
ATOM      5  C21 UNL     1     -54.527  44.184 -20.007  0.00  0.00    +0.041 A 
ATOM      6  C22 UNL     1     -55.439  43.272 -20.579  0.00  0.00    +0.172 A 
ENDROOT
BRANCH   4   7
ATOM      7  C6  UNL     1     -52.237  44.735 -19.061  0.00  0.00    +0.079 C 
ATOM      8  N1  UNL     1     -51.964  44.656 -17.792  0.00  0.00    -0.172 NA
ATOM      9  N2  UNL     1     -51.051  45.497 -17.123  0.00  0.00    -0.222 N 
ATOM     10  C14 UNL     1     -50.210  46.248 -17.797  0.00  0.00    +0.253 C 
ATOM     11  O2  UNL     1     -49.247  46.997 -17.111  0.00  0.00    -0.271 OA
ATOM     12  C15 UNL     1     -50.224  46.237 -19.321  0.00  0.00    +0.091 C 
ATOM     13  C16 UNL     1     -49.798  47.583 -19.944  0.00  0.00    +0.035 C 
ATOM     14  C17 UNL     1     -50.760  48.654 -19.529  0.00  0.00    -0.030 C 
ATOM     15  C18 UNL     1     -52.074  48.395 -19.504  0.00  0.00    -0.030 C 
ATOM     16  C19 UNL     1     -52.628  47.066 -19.964  0.00  0.00    +0.032 C 
ATOM     17  C20 UNL     1     -51.630  45.862 -19.870  0.00  0.00    +0.056 C 
BRANCH   9  18
ATOM     18  C7  UNL     1     -51.046  45.422 -15.647  0.00  0.00    +0.108 C 
ATOM     19  C8  UNL     1     -52.111  46.372 -15.036  0.00  0.00    +0.024 C 
ATOM     20  C9  UNL     1     -51.691  46.925 -13.665  0.00  0.00    +0.002 C 
ATOM     21  C10 UNL     1     -51.873  45.924 -12.519  0.00  0.00    +0.000 C 
ATOM     22  C11 UNL     1     -51.056  44.637 -12.693  0.00  0.00    +0.000 C 
ATOM     23  C12 UNL     1     -51.661  43.707 -13.758  0.00  0.00    +0.002 C 
ATOM     24  C13 UNL     1     -51.117  43.943 -15.176  0.00  0.00    +0.024 C 
ENDBRANCH   9  18
ENDBRANCH   4   7
BRANCH   1  26
ATOM     25  C1  UNL     1     -55.739  39.673 -21.584  0.00  0.00    +0.253 C 
ATOM     26  O1  UNL     1     -56.003  41.042 -21.294  0.00  0.00    -0.468 OA
ENDBRANCH   1  26
BRANCH   6  27
ATOM     27  O3  UNL     1     -56.728  43.652 -20.990  0.00  0.00    -0.472 OA
BRANCH  27  28
ATOM     28  C23 UNL     1     -57.195  44.993 -21.138  0.00  0.00    +0.206 C 
BRANCH  28  29
ATOM     29  C24 UNL     1     -58.162  45.355 -20.008  0.00  0.00    +0.051 C 
BRANCH  29  30
ATOM     30  C25 UNL     1     -57.412  45.906 -18.789  0.00  0.00    +0.051 C 
BRANCH  30  31
ATOM     31  C26 UNL     1     -57.295  44.855 -17.685  0.00  0.00    +0.206 C 
BRANCH  31  32
ATOM     32  O4  UNL     1     -58.291  43.852 -17.879  0.00  0.00    -0.475 OA
BRANCH  32  33
ATOM     33  C27 UNL     1     -58.029  42.483 -18.027  0.00  0.00    +0.139 A 
ATOM     34  C28 UNL     1     -56.912  41.953 -17.377  0.00  0.00    +0.037 A 
ATOM     35  C29 UNL     1     -56.582  40.603 -17.514  0.00  0.00    +0.006 A 
ATOM     36  C30 UNL     1     -57.381  39.746 -18.296  0.00  0.00    +0.040 A 
ATOM     37  C32 UNL     1     -58.522  40.278 -18.929  0.00  0.00    +0.006 A 
ATOM     38  C33 UNL     1     -58.840  41.634 -18.801  0.00  0.00    +0.037 A 
BRANCH  36  39
ATOM     39  C31 UNL     1     -57.023  38.313 -18.453  0.00  0.00    +0.208 A 
ATOM     40  N3  UNL     1     -55.769  37.812 -18.416  0.00  0.00    -0.106 NA
ATOM     41  N4  UNL     1     -55.900  36.505 -18.572  0.00  0.00    -0.021 NA
ATOM     42  N5  UNL     1     -57.179  36.201 -18.705  0.00  0.00    -0.021 NA
ATOM     43  N6  UNL     1     -57.904  37.303 -18.632  0.00  0.00    -0.106 NA
ENDBRANCH  36  39
ENDBRANCH  32  33
ENDBRANCH  31  32
ENDBRANCH  30  31
ENDBRANCH  29  30
ENDBRANCH  28  29
ENDBRANCH  27  28
ENDBRANCH   6  27
TORSDOF 11
ENDMDL
MODEL 3
REMARK VINA RESULT:      -5.7      3.518      8.927
REMARK  Name = ./data/4wxx_site_bc02/pdb/l1c0.pdb
REMARK  11 active torsions:
REMARK  status: ('A' for Active; 'I' for Inactive)
REMARK    1  A    between atoms: O1_2  and  C2_3
REMARK    2  A    between atoms: C5_6  and  C6_7
REMARK    3  A    between atoms: N2_9  and  C7_10
REMARK    4  A    between atoms: C22_26  and  O3_27
REMARK    5  A    between atoms: O3_27  and  C23_28
REMARK    6  A    between atoms: C23_28  and  C24_29
REMARK    7  A    between atoms: C24_29  and  C25_30
REMARK    8  A    between atoms: C25_30  and  C26_31
REMARK    9  A    between atoms: C26_31  and  O4_32
REMARK   10  A    between atoms: O4_32  and  C27_33
REMARK   11  A    between atoms: C30_36  and  C31_37
REMARK                            x       y       z     vdW  Elec       q    Type
REMARK                         _______ _______ _______ _____ _____    ______ ____
ROOT
ATOM      1  C2  UNL     1     -55.293  40.677 -19.894  0.00  0.00    +0.172 A 
ATOM      2  C3  UNL     1     -54.298  40.352 -18.957  0.00  0.00    +0.040 A 
ATOM      3  C4  UNL     1     -53.357  41.305 -18.567  0.00  0.00    +0.005 A 
ATOM      4  C5  UNL     1     -53.387  42.608 -19.093  0.00  0.00    +0.018 A 
ATOM      5  C21 UNL     1     -54.395  42.933 -20.021  0.00  0.00    +0.041 A 
ATOM      6  C22 UNL     1     -55.335  41.967 -20.440  0.00  0.00    +0.172 A 
ENDROOT
BRANCH   4   7
ATOM      7  C6  UNL     1     -52.365  43.609 -18.657  0.00  0.00    +0.079 C 
ATOM      8  N1  UNL     1     -52.213  43.831 -17.385  0.00  0.00    -0.172 NA
ATOM      9  N2  UNL     1     -51.286  44.747 -16.845  0.00  0.00    -0.222 N 
ATOM     10  C14 UNL     1     -50.322  45.246 -17.586  0.00  0.00    +0.253 C 
ATOM     11  O2  UNL     1     -49.358  46.073 -17.002  0.00  0.00    -0.271 OA
ATOM     12  C15 UNL     1     -50.205  44.855 -19.055  0.00  0.00    +0.091 C 
ATOM     13  C16 UNL     1     -49.602  45.969 -19.935  0.00  0.00    +0.035 C 
ATOM     14  C17 UNL     1     -50.492  47.174 -19.897  0.00  0.00    -0.030 C 
ATOM     15  C18 UNL     1     -51.821  47.022 -19.952  0.00  0.00    -0.030 C 
ATOM     16  C19 UNL     1     -52.455  45.662 -20.133  0.00  0.00    +0.032 C 
ATOM     17  C20 UNL     1     -51.587  44.453 -19.645  0.00  0.00    +0.056 C 
BRANCH   9  18
ATOM     18  C7  UNL     1     -51.417  45.043 -15.403  0.00  0.00    +0.108 C 
ATOM     19  C8  UNL     1     -52.835  45.580 -15.069  0.00  0.00    +0.024 C 
ATOM     20  C9  UNL     1     -52.829  46.574 -13.897  0.00  0.00    +0.002 C 
ATOM     21  C10 UNL     1     -52.721  45.902 -12.524  0.00  0.00    +0.000 C 
ATOM     22  C11 UNL     1     -51.443  45.072 -12.347  0.00  0.00    +0.000 C 
ATOM     23  C12 UNL     1     -51.499  43.746 -13.123  0.00  0.00    +0.002 C 
ATOM     24  C13 UNL     1     -50.940  43.834 -14.552  0.00  0.00    +0.024 C 
ENDBRANCH   9  18
ENDBRANCH   4   7
BRANCH   1  26
ATOM     25  C1  UNL     1     -57.538  39.590 -19.707  0.00  0.00    +0.253 C 
ATOM     26  O1  UNL     1     -56.258  39.745 -20.310  0.00  0.00    -0.468 OA
ENDBRANCH   1  26
BRANCH   6  27
ATOM     27  O3  UNL     1     -56.329  42.246 -21.393  0.00  0.00    -0.472 OA
BRANCH  27  28
ATOM     28  C23 UNL     1     -57.248  43.338 -21.346  0.00  0.00    +0.206 C 
BRANCH  28  29
ATOM     29  C24 UNL     1     -57.714  43.588 -19.909  0.00  0.00    +0.051 C 
BRANCH  29  30
ATOM     30  C25 UNL     1     -58.840  44.628 -19.862  0.00  0.00    +0.051 C 
BRANCH  30  31
ATOM     31  C26 UNL     1     -58.585  45.677 -18.781  0.00  0.00    +0.206 C 
BRANCH  31  32
ATOM     32  O4  UNL     1     -58.674  46.980 -19.356  0.00  0.00    -0.475 OA
BRANCH  32  33
ATOM     33  C27 UNL     1     -57.575  47.769 -19.720  0.00  0.00    +0.139 A 
ATOM     34  C28 UNL     1     -56.354  47.132 -19.949  0.00  0.00    +0.037 A 
ATOM     35  C29 UNL     1     -55.217  47.870 -20.282  0.00  0.00    +0.006 A 
ATOM     36  C30 UNL     1     -55.284  49.271 -20.413  0.00  0.00    +0.040 A 
ATOM     37  C32 UNL     1     -56.524  49.909 -20.208  0.00  0.00    +0.006 A 
ATOM     38  C33 UNL     1     -57.657  49.167 -19.858  0.00  0.00    +0.037 A 
BRANCH  36  39
ATOM     39  C31 UNL     1     -54.071  50.058 -20.755  0.00  0.00    +0.208 A 
ATOM     40  N3  UNL     1     -53.628  51.143 -20.083  0.00  0.00    -0.106 NA
ATOM     41  N4  UNL     1     -52.519  51.518 -20.698  0.00  0.00    -0.021 NA
ATOM     42  N5  UNL     1     -52.280  50.706 -21.713  0.00  0.00    -0.021 NA
ATOM     43  N6  UNL     1     -53.225  49.786 -21.774  0.00  0.00    -0.106 NA
ENDBRANCH  36  39
ENDBRANCH  32  33
ENDBRANCH  31  32
ENDBRANCH  30  31
ENDBRANCH  29  30
ENDBRANCH  28  29
ENDBRANCH  27  28
ENDBRANCH   6  27
TORSDOF 11
ENDMDL
MODEL 4
REMARK VINA RESULT:      -5.3      1.714      2.729
REMARK  Name = ./data/4wxx_site_bc02/pdb/l1c0.pdb
REMARK  11 active torsions:
REMARK  status: ('A' for Active; 'I' for Inactive)
REMARK    1  A    between atoms: O1_2  and  C2_3
REMARK    2  A    between atoms: C5_6  and  C6_7
REMARK    3  A    between atoms: N2_9  and  C7_10
REMARK    4  A    between atoms: C22_26  and  O3_27
REMARK    5  A    between atoms: O3_27  and  C23_28
REMARK    6  A    between atoms: C23_28  and  C24_29
REMARK    7  A    between atoms: C24_29  and  C25_30
REMARK    8  A    between atoms: C25_30  and  C26_31
REMARK    9  A    between atoms: C26_31  and  O4_32
REMARK   10  A    between atoms: O4_32  and  C27_33
REMARK   11  A    between atoms: C30_36  and  C31_37
REMARK                            x       y       z     vdW  Elec       q    Type
REMARK                         _______ _______ _______ _____ _____    ______ ____
ROOT
ATOM      1  C2  UNL     1     -50.842  45.183 -20.517  0.00  0.00    +0.172 A 
ATOM      2  C3  UNL     1     -51.112  44.107 -19.656  0.00  0.00    +0.040 A 
ATOM      3  C4  UNL     1     -52.413  43.860 -19.218  0.00  0.00    +0.005 A 
ATOM      4  C5  UNL     1     -53.482  44.674 -19.633  0.00  0.00    +0.018 A 
ATOM      5  C21 UNL     1     -53.208  45.744 -20.507  0.00  0.00    +0.041 A 
ATOM      6  C22 UNL     1     -51.891  46.015 -20.934  0.00  0.00    +0.172 A 
ENDROOT
BRANCH   4   7
ATOM      7  C6  UNL     1     -54.867  44.387 -19.147  0.00  0.00    +0.079 C 
ATOM      8  N1  UNL     1     -55.191  43.156 -18.882  0.00  0.00    -0.172 NA
ATOM      9  N2  UNL     1     -56.461  42.753 -18.419  0.00  0.00    -0.222 N 
ATOM     10  C14 UNL     1     -57.324  43.635 -17.966  0.00  0.00    +0.253 C 
ATOM     11  O2  UNL     1     -58.536  43.200 -17.420  0.00  0.00    -0.271 OA
ATOM     12  C15 UNL     1     -56.970  45.118 -17.957  0.00  0.00    +0.091 C 
ATOM     13  C16 UNL     1     -58.196  46.037 -18.133  0.00  0.00    +0.035 C 
ATOM     14  C17 UNL     1     -58.834  45.773 -19.463  0.00  0.00    -0.030 C 
ATOM     15  C18 UNL     1     -58.065  45.586 -20.544  0.00  0.00    -0.030 C 
ATOM     16  C19 UNL     1     -56.561  45.714 -20.477  0.00  0.00    +0.032 C 
ATOM     17  C20 UNL     1     -55.934  45.458 -19.065  0.00  0.00    +0.056 C 
BRANCH   9  18
ATOM     18  C7  UNL     1     -56.724  41.298 -18.400  0.00  0.00    +0.108 C 
ATOM     19  C8  UNL     1     -55.745  40.542 -19.338  0.00  0.00    +0.024 C 
ATOM     20  C9  UNL     1     -56.375  39.283 -19.956  0.00  0.00    +0.002 C 
ATOM     21  C10 UNL     1     -56.433  38.092 -18.994  0.00  0.00    +0.000 C 
ATOM     22  C11 UNL     1     -57.256  38.365 -17.729  0.00  0.00    +0.000 C 
ATOM     23  C12 UNL     1     -56.513  39.278 -16.739  0.00  0.00    +0.002 C 
ATOM     24  C13 UNL     1     -56.794  40.776 -16.939  0.00  0.00    +0.024 C 
ENDBRANCH   9  18
ENDBRANCH   4   7
BRANCH   1  26
ATOM     25  C1  UNL     1     -49.136  46.718 -21.511  0.00  0.00    +0.253 C 
ATOM     26  O1  UNL     1     -49.547  45.462 -20.979  0.00  0.00    -0.468 OA
ENDBRANCH   1  26
BRANCH   6  27
ATOM     27  O3  UNL     1     -51.578  47.097 -21.775  0.00  0.00    -0.472 OA
BRANCH  27  28
ATOM     28  C23 UNL     1     -52.196  48.383 -21.744  0.00  0.00    +0.206 C 
BRANCH  28  29
ATOM     29  C24 UNL     1     -51.180  49.461 -21.357  0.00  0.00    +0.051 C 
BRANCH  29  30
ATOM     30  C25 UNL     1     -51.467  50.019 -19.958  0.00  0.00    +0.051 C 
BRANCH  30  31
ATOM     31  C26 UNL     1     -50.446  49.517 -18.937  0.00  0.00    +0.206 C 
BRANCH  31  32
ATOM     32  O4  UNL     1     -50.570  48.103 -18.800  0.00  0.00    -0.475 OA
BRANCH  32  33
ATOM     33  C27 UNL     1     -50.547  47.412 -17.581  0.00  0.00    +0.139 A 
ATOM     34  C28 UNL     1     -51.698  46.725 -17.191  0.00  0.00    +0.037 A 
ATOM     35  C29 UNL     1     -51.745  46.048 -15.971  0.00  0.00    +0.006 A 
ATOM     36  C30 UNL     1     -50.625  46.029 -15.119  0.00  0.00    +0.040 A 
ATOM     37  C32 UNL     1     -49.455  46.701 -15.525  0.00  0.00    +0.006 A 
ATOM     38  C33 UNL     1     -49.418  47.392 -16.741  0.00  0.00    +0.037 A 
BRANCH  36  39
ATOM     39  C31 UNL     1     -50.679  45.319 -13.814  0.00  0.00    +0.208 A 
ATOM     40  N3  UNL     1     -50.959  44.009 -13.648  0.00  0.00    -0.106 NA
ATOM     41  N4  UNL     1     -50.880  43.787 -12.347  0.00  0.00    -0.021 NA
ATOM     42  N5  UNL     1     -50.568  44.910 -11.725  0.00  0.00    -0.021 NA
ATOM     43  N6  UNL     1     -50.433  45.881 -12.609  0.00  0.00    -0.106 NA
ENDBRANCH  36  39
ENDBRANCH  32  33
ENDBRANCH  31  32
ENDBRANCH  30  31
ENDBRANCH  29  30
ENDBRANCH  28  29
ENDBRANCH  27  28
ENDBRANCH   6  27
TORSDOF 11
ENDMDL
