MODEL 1
REMARK VINA RESULT:      -6.2      0.000      0.000
REMARK  Name = ./data/4wxx_site_bc02/pdb/l1c2.pdb
REMARK  11 active torsions:
REMARK  status: ('A' for Active; 'I' for Inactive)
REMARK    1  A    between atoms: O1_2  and  C2_3
REMARK    2  A    between atoms: C5_6  and  C6_7
REMARK    3  A    between atoms: N2_9  and  C7_10
REMARK    4  A    between atoms: C22_26  and  O3_27
REMARK    5  A    between atoms: O3_27  and  C23_28
REMARK    6  A    between atoms: C23_28  and  C24_29
REMARK    7  A    between atoms: C24_29  and  C25_30
REMARK    8  A    between atoms: C25_30  and  C26_31
REMARK    9  A    between atoms: C26_31  and  O4_32
REMARK   10  A    between atoms: O4_32  and  C27_33
REMARK   11  A    between atoms: C30_36  and  C31_37
REMARK                            x       y       z     vdW  Elec       q    Type
REMARK                         _______ _______ _______ _____ _____    ______ ____
ROOT
ATOM      1  C2  UNL     1     -85.763  65.702 -11.066  0.00  0.00    +0.172 A 
ATOM      2  C3  UNL     1     -85.585  64.617 -10.186  0.00  0.00    +0.040 A 
ATOM      3  C4  UNL     1     -86.689  63.924  -9.685  0.00  0.00    +0.005 A 
ATOM      4  C5  UNL     1     -87.986  64.292 -10.067  0.00  0.00    +0.018 A 
ATOM      5  C21 UNL     1     -88.168  65.396 -10.913  0.00  0.00    +0.041 A 
ATOM      6  C22 UNL     1     -87.061  66.095 -11.432  0.00  0.00    +0.172 A 
ENDROOT
BRANCH   4   7
ATOM      7  C6  UNL     1     -89.168  63.555  -9.582  0.00  0.00    +0.079 C 
ATOM      8  N1  UNL     1     -89.850  64.079  -8.605  0.00  0.00    -0.172 NA
ATOM      9  N2  UNL     1     -91.110  63.592  -8.183  0.00  0.00    -0.222 N 
ATOM     10  C14 UNL     1     -91.539  62.416  -8.596  0.00  0.00    +0.253 C 
ATOM     11  O2  UNL     1     -92.790  61.927  -8.217  0.00  0.00    -0.271 OA
ATOM     12  C15 UNL     1     -90.656  61.560  -9.471  0.00  0.00    +0.091 C 
ATOM     13  C16 UNL     1     -89.749  60.678  -8.590  0.00  0.00    +0.035 C 
ATOM     14  C17 UNL     1     -88.600  60.065  -9.345  0.00  0.00    -0.030 C 
ATOM     15  C18 UNL     1     -88.150  60.559 -10.507  0.00  0.00    -0.030 C 
ATOM     16  C19 UNL     1     -88.895  61.610 -11.284  0.00  0.00    +0.032 C 
ATOM     17  C20 UNL     1     -89.831  62.464 -10.404  0.00  0.00    +0.056 C 
BRANCH   9  18
ATOM     18  C7  UNL     1     -91.920  64.500  -7.345  0.00  0.00    +0.108 C 
ATOM     19  C8  UNL     1     -91.720  65.976  -7.755  0.00  0.00    +0.024 C 
ATOM     20  C9  UNL     1     -92.603  66.960  -6.967  0.00  0.00    +0.002 C 
ATOM     21  C10 UNL     1     -92.081  67.191  -5.538  0.00  0.00    +0.000 C 
ATOM     22  C11 UNL     1     -92.627  66.206  -4.486  0.00  0.00    +0.000 C 
ATOM     23  C12 UNL     1     -92.819  64.750  -4.952  0.00  0.00    +0.002 C 
ATOM     24  C13 UNL     1     -91.681  64.217  -5.841  0.00  0.00    +0.024 C 
ENDBRANCH   9  18
ENDBRANCH   4   7
BRANCH   1  26
ATOM     25  C1  UNL     1     -83.918  65.978 -12.735  0.00  0.00    +0.253 C 
ATOM     26  O1  UNL     1     -84.676  66.409 -11.608  0.00  0.00    -0.468 OA
ENDBRANCH   1  26
BRANCH   6  27
ATOM     27  O3  UNL     1     -87.209  67.171 -12.324  0.00  0.00    -0.472 OA
BRANCH  27  28
ATOM     28  C23 UNL     1     -87.593  67.048 -13.693  0.00  0.00    +0.206 C 
BRANCH  28  29
ATOM     29  C24 UNL     1     -89.095  67.288 -13.839  0.00  0.00    +0.051 C 
BRANCH  29  30
ATOM     30  C25 UNL     1     -89.605  68.269 -12.774  0.00  0.00    +0.051 C 
BRANCH  30  31
ATOM     31  C26 UNL     1     -90.933  67.795 -12.171  0.00  0.00    +0.206 C 
BRANCH  31  32
ATOM     32  O4  UNL     1     -90.990  68.101 -10.776  0.00  0.00    -0.475 OA
BRANCH  32  33
ATOM     33  C27 UNL     1     -90.050  68.877 -10.075  0.00  0.00    +0.139 A 
ATOM     34  C28 UNL     1     -89.965  70.279 -10.201  0.00  0.00    +0.037 A 
ATOM     35  C29 UNL     1     -88.987  70.993  -9.502  0.00  0.00    +0.006 A 
ATOM     36  C30 UNL     1     -88.089  70.327  -8.654  0.00  0.00    +0.040 A 
ATOM     37  C32 UNL     1     -88.186  68.932  -8.519  0.00  0.00    +0.006 A 
ATOM     38  C33 UNL     1     -89.157  68.217  -9.223  0.00  0.00    +0.037 A 
BRANCH  36  39
ATOM     39  C31 UNL     1     -87.057  71.084  -7.911  0.00  0.00    +0.208 A 
ATOM     40  N3  UNL     1     -87.239  71.667  -6.708  0.00  0.00    -0.106 NA
ATOM     41  N4  UNL     1     -86.086  72.241  -6.410  0.00  0.00    -0.021 NA
ATOM     42  N5  UNL     1     -85.218  72.024  -7.381  0.00  0.00    -0.021 NA
ATOM     43  N6  UNL     1     -85.793  71.307  -8.332  0.00  0.00    -0.106 NA
ENDBRANCH  36  39
ENDBRANCH  32  33
ENDBRANCH  31  32
ENDBRANCH  30  31
ENDBRANCH  29  30
ENDBRANCH  28  29
ENDBRANCH  27  28
ENDBRANCH   6  27
TORSDOF 11
ENDMDL
MODEL 2
REMARK VINA RESULT:      -6.2      1.939      2.812
REMARK  Name = ./data/4wxx_site_bc02/pdb/l1c2.pdb
REMARK  11 active torsions:
REMARK  status: ('A' for Active; 'I' for Inactive)
REMARK    1  A    between atoms: O1_2  and  C2_3
REMARK    2  A    between atoms: C5_6  and  C6_7
REMARK    3  A    between atoms: N2_9  and  C7_10
REMARK    4  A    between atoms: C22_26  and  O3_27
REMARK    5  A    between atoms: O3_27  and  C23_28
REMARK    6  A    between atoms: C23_28  and  C24_29
REMARK    7  A    between atoms: C24_29  and  C25_30
REMARK    8  A    between atoms: C25_30  and  C26_31
REMARK    9  A    between atoms: C26_31  and  O4_32
REMARK   10  A    between atoms: O4_32  and  C27_33
REMARK   11  A    between atoms: C30_36  and  C31_37
REMARK                            x       y       z     vdW  Elec       q    Type
REMARK                         _______ _______ _______ _____ _____    ______ ____
ROOT
ATOM      1  C2  UNL     1     -88.260  69.237 -11.335  0.00  0.00    +0.172 A 
ATOM      2  C3  UNL     1     -87.448  68.501 -10.450  0.00  0.00    +0.040 A 
ATOM      3  C4  UNL     1     -87.887  67.279  -9.936  0.00  0.00    +0.005 A 
ATOM      4  C5  UNL     1     -89.135  66.764 -10.310  0.00  0.00    +0.018 A 
ATOM      5  C21 UNL     1     -89.962  67.513 -11.162  0.00  0.00    +0.041 A 
ATOM      6  C22 UNL     1     -89.525  68.741 -11.693  0.00  0.00    +0.172 A 
ENDROOT
BRANCH   4   7
ATOM      7  C6  UNL     1     -89.608  65.459  -9.812  0.00  0.00    +0.079 C 
ATOM      8  N1  UNL     1     -90.273  65.443  -8.693  0.00  0.00    -0.172 NA
ATOM      9  N2  UNL     1     -90.958  64.304  -8.209  0.00  0.00    -0.222 N 
ATOM     10  C14 UNL     1     -90.741  63.120  -8.747  0.00  0.00    +0.253 C 
ATOM     11  O2  UNL     1     -91.426  61.986  -8.306  0.00  0.00    -0.271 OA
ATOM     12  C15 UNL     1     -89.712  62.970  -9.841  0.00  0.00    +0.091 C 
ATOM     13  C16 UNL     1     -88.328  62.702  -9.219  0.00  0.00    +0.035 C 
ATOM     14  C17 UNL     1     -87.192  62.895 -10.188  0.00  0.00    -0.030 C 
ATOM     15  C18 UNL     1     -87.307  63.629 -11.303  0.00  0.00    -0.030 C 
ATOM     16  C19 UNL     1     -88.633  64.122 -11.816  0.00  0.00    +0.032 C 
ATOM     17  C20 UNL     1     -89.704  64.239 -10.711  0.00  0.00    +0.056 C 
BRANCH   9  18
ATOM     18  C7  UNL     1     -91.964  64.539  -7.152  0.00  0.00    +0.108 C 
ATOM     19  C8  UNL     1     -92.410  66.018  -7.116  0.00  0.00    +0.024 C 
ATOM     20  C9  UNL     1     -93.517  66.303  -6.086  0.00  0.00    +0.002 C 
ATOM     21  C10 UNL     1     -92.974  66.337  -4.647  0.00  0.00    +0.000 C 
ATOM     22  C11 UNL     1     -92.966  64.973  -3.928  0.00  0.00    +0.000 C 
ATOM     23  C12 UNL     1     -92.618  63.750  -4.797  0.00  0.00    +0.002 C 
ATOM     24  C13 UNL     1     -91.467  63.989  -5.792  0.00  0.00    +0.024 C 
ENDBRANCH   9  18
ENDBRANCH   4   7
BRANCH   1  26
ATOM     25  C1  UNL     1     -86.499  70.934 -11.870  0.00  0.00    +0.253 C 
ATOM     26  O1  UNL     1     -87.843  70.458 -11.889  0.00  0.00    -0.468 OA
ENDBRANCH   1  26
BRANCH   6  27
ATOM     27  O3  UNL     1     -90.307  69.487 -12.591  0.00  0.00    -0.472 OA
BRANCH  27  28
ATOM     28  C23 UNL     1     -91.518  70.162 -12.251  0.00  0.00    +0.206 C 
BRANCH  28  29
ATOM     29  C24 UNL     1     -92.713  69.236 -12.468  0.00  0.00    +0.051 C 
BRANCH  29  30
ATOM     30  C25 UNL     1     -93.362  68.847 -11.131  0.00  0.00    +0.051 C 
BRANCH  30  31
ATOM     31  C26 UNL     1     -93.308  70.007 -10.129  0.00  0.00    +0.206 C 
BRANCH  31  32
ATOM     32  O4  UNL     1     -92.648  69.604  -8.928  0.00  0.00    -0.475 OA
BRANCH  32  33
ATOM     33  C27 UNL     1     -91.337  69.960  -8.561  0.00  0.00    +0.139 A 
ATOM     34  C28 UNL     1     -90.505  69.130  -7.783  0.00  0.00    +0.037 A 
ATOM     35  C29 UNL     1     -89.223  69.553  -7.422  0.00  0.00    +0.006 A 
ATOM     36  C30 UNL     1     -88.740  70.802  -7.844  0.00  0.00    +0.040 A 
ATOM     37  C32 UNL     1     -89.566  71.621  -8.632  0.00  0.00    +0.006 A 
ATOM     38  C33 UNL     1     -90.851  71.203  -8.986  0.00  0.00    +0.037 A 
BRANCH  36  39
ATOM     39  C31 UNL     1     -87.381  71.247  -7.467  0.00  0.00    +0.208 A 
ATOM     40  N3  UNL     1     -87.097  72.121  -6.478  0.00  0.00    -0.106 NA
ATOM     41  N4  UNL     1     -85.782  72.251  -6.482  0.00  0.00    -0.021 NA
ATOM     42  N5  UNL     1     -85.263  71.489  -7.427  0.00  0.00    -0.021 NA
ATOM     43  N6  UNL     1     -86.233  70.851  -8.059  0.00  0.00    -0.106 NA
ENDBRANCH  36  39
ENDBRANCH  32  33
ENDBRANCH  31  32
ENDBRANCH  30  31
ENDBRANCH  29  30
ENDBRANCH  28  29
ENDBRANCH  27  28
ENDBRANCH   6  27
TORSDOF 11
ENDMDL
MODEL 3
REMARK VINA RESULT:      -5.7      2.445      5.069
REMARK  Name = ./data/4wxx_site_bc02/pdb/l1c2.pdb
REMARK  11 active torsions:
REMARK  status: ('A' for Active; 'I' for Inactive)
REMARK    1  A    between atoms: O1_2  and  C2_3
REMARK    2  A    between atoms: C5_6  and  C6_7
REMARK    3  A    between atoms: N2_9  and  C7_10
REMARK    4  A    between atoms: C22_26  and  O3_27
REMARK    5  A    between atoms: O3_27  and  C23_28
REMARK    6  A    between atoms: C23_28  and  C24_29
REMARK    7  A    between atoms: C24_29  and  C25_30
REMARK    8  A    between atoms: C25_30  and  C26_31
REMARK    9  A    between atoms: C26_31  and  O4_32
REMARK   10  A    between atoms: O4_32  and  C27_33
REMARK   11  A    between atoms: C30_36  and  C31_37
REMARK                            x       y       z     vdW  Elec       q    Type
REMARK                         _______ _______ _______ _____ _____    ______ ____
ROOT
ATOM      1  C2  UNL     1     -87.907  69.377 -11.147  0.00  0.00    +0.172 A 
ATOM      2  C3  UNL     1     -87.088  68.699 -10.224  0.00  0.00    +0.040 A 
ATOM      3  C4  UNL     1     -87.395  67.395  -9.829  0.00  0.00    +0.005 A 
ATOM      4  C5  UNL     1     -88.513  66.741 -10.363  0.00  0.00    +0.018 A 
ATOM      5  C21 UNL     1     -89.352  67.428 -11.254  0.00  0.00    +0.041 A 
ATOM      6  C22 UNL     1     -89.046  68.739 -11.665  0.00  0.00    +0.172 A 
ENDROOT
BRANCH   4   7
ATOM      7  C6  UNL     1     -88.841  65.352  -9.993  0.00  0.00    +0.079 C 
ATOM      8  N1  UNL     1     -88.039  64.411 -10.402  0.00  0.00    -0.172 NA
ATOM      9  N2  UNL     1     -88.114  63.071  -9.953  0.00  0.00    -0.222 N 
ATOM     10  C14 UNL     1     -89.172  62.653  -9.286  0.00  0.00    +0.253 C 
ATOM     11  O2  UNL     1     -89.257  61.345  -8.807  0.00  0.00    -0.271 OA
ATOM     12  C15 UNL     1     -90.333  63.591  -9.057  0.00  0.00    +0.091 C 
ATOM     13  C16 UNL     1     -91.314  63.503 -10.243  0.00  0.00    +0.035 C 
ATOM     14  C17 UNL     1     -92.299  64.639 -10.285  0.00  0.00    -0.030 C 
ATOM     15  C18 UNL     1     -92.088  65.806  -9.660  0.00  0.00    -0.030 C 
ATOM     16  C19 UNL     1     -90.977  66.003  -8.665  0.00  0.00    +0.032 C 
ATOM     17  C20 UNL     1     -89.803  65.022  -8.867  0.00  0.00    +0.056 C 
BRANCH   9  18
ATOM     18  C7  UNL     1     -86.928  62.225 -10.199  0.00  0.00    +0.108 C 
ATOM     19  C8  UNL     1     -85.657  63.081 -10.400  0.00  0.00    +0.024 C 
ATOM     20  C9  UNL     1     -84.376  62.248 -10.581  0.00  0.00    +0.002 C 
ATOM     21  C10 UNL     1     -84.285  61.619 -11.982  0.00  0.00    +0.000 C 
ATOM     22  C11 UNL     1     -84.940  60.229 -12.108  0.00  0.00    +0.000 C 
ATOM     23  C12 UNL     1     -86.239  60.014 -11.308  0.00  0.00    +0.002 C 
ATOM     24  C13 UNL     1     -87.204  61.213 -11.338  0.00  0.00    +0.024 C 
ENDBRANCH   9  18
ENDBRANCH   4   7
BRANCH   1  26
ATOM     25  C1  UNL     1     -86.330  71.285 -11.513  0.00  0.00    +0.253 C 
ATOM     26  O1  UNL     1     -87.618  70.681 -11.583  0.00  0.00    -0.468 OA
ENDBRANCH   1  26
BRANCH   6  27
ATOM     27  O3  UNL     1     -89.837  69.433 -12.598  0.00  0.00    -0.472 OA
BRANCH  27  28
ATOM     28  C23 UNL     1     -91.135  69.962 -12.332  0.00  0.00    +0.206 C 
BRANCH  28  29
ATOM     29  C24 UNL     1     -92.171  68.838 -12.341  0.00  0.00    +0.051 C 
BRANCH  29  30
ATOM     30  C25 UNL     1     -93.153  68.981 -11.169  0.00  0.00    +0.051 C 
BRANCH  30  31
ATOM     31  C26 UNL     1     -93.144  70.408 -10.607  0.00  0.00    +0.206 C 
BRANCH  31  32
ATOM     32  O4  UNL     1     -92.746  70.406  -9.234  0.00  0.00    -0.475 OA
BRANCH  32  33
ATOM     33  C27 UNL     1     -91.426  70.550  -8.770  0.00  0.00    +0.139 A 
ATOM     34  C28 UNL     1     -90.735  69.525  -8.092  0.00  0.00    +0.037 A 
ATOM     35  C29 UNL     1     -89.435  69.738  -7.625  0.00  0.00    +0.006 A 
ATOM     36  C30 UNL     1     -88.794  70.969  -7.840  0.00  0.00    +0.040 A 
ATOM     37  C32 UNL     1     -89.479  71.983  -8.530  0.00  0.00    +0.006 A 
ATOM     38  C33 UNL     1     -90.781  71.773  -8.989  0.00  0.00    +0.037 A 
BRANCH  36  39
ATOM     39  C31 UNL     1     -87.416  71.193  -7.351  0.00  0.00    +0.208 A 
ATOM     40  N3  UNL     1     -86.409  70.298  -7.431  0.00  0.00    -0.106 NA
ATOM     41  N4  UNL     1     -85.363  70.884  -6.874  0.00  0.00    -0.021 NA
ATOM     42  N5  UNL     1     -85.698  72.094  -6.465  0.00  0.00    -0.021 NA
ATOM     43  N6  UNL     1     -86.971  72.317  -6.747  0.00  0.00    -0.106 NA
ENDBRANCH  36  39
ENDBRANCH  32  33
ENDBRANCH  31  32
ENDBRANCH  30  31
ENDBRANCH  29  30
ENDBRANCH  28  29
ENDBRANCH  27  28
ENDBRANCH   6  27
TORSDOF 11
ENDMDL
MODEL 4
REMARK VINA RESULT:      -5.6      3.041      7.366
REMARK  Name = ./data/4wxx_site_bc02/pdb/l1c2.pdb
REMARK  11 active torsions:
REMARK  status: ('A' for Active; 'I' for Inactive)
REMARK    1  A    between atoms: O1_2  and  C2_3
REMARK    2  A    between atoms: C5_6  and  C6_7
REMARK    3  A    between atoms: N2_9  and  C7_10
REMARK    4  A    between atoms: C22_26  and  O3_27
REMARK    5  A    between atoms: O3_27  and  C23_28
REMARK    6  A    between atoms: C23_28  and  C24_29
REMARK    7  A    between atoms: C24_29  and  C25_30
REMARK    8  A    between atoms: C25_30  and  C26_31
REMARK    9  A    between atoms: C26_31  and  O4_32
REMARK   10  A    between atoms: O4_32  and  C27_33
REMARK   11  A    between atoms: C30_36  and  C31_37
REMARK                            x       y       z     vdW  Elec       q    Type
REMARK                         _______ _______ _______ _____ _____    ______ ____
ROOT
ATOM      1  C2  UNL     1     -87.259  68.997 -10.421  0.00  0.00    +0.172 A 
ATOM      2  C3  UNL     1     -88.613  69.363 -10.287  0.00  0.00    +0.040 A 
ATOM      3  C4  UNL     1     -89.609  68.386 -10.231  0.00  0.00    +0.005 A 
ATOM      4  C5  UNL     1     -89.269  67.029 -10.291  0.00  0.00    +0.018 A 
ATOM      5  C21 UNL     1     -87.925  66.661 -10.462  0.00  0.00    +0.041 A 
ATOM      6  C22 UNL     1     -86.913  67.638 -10.510  0.00  0.00    +0.172 A 
ENDROOT
BRANCH   4   7
ATOM      7  C6  UNL     1     -90.296  65.974 -10.197  0.00  0.00    +0.079 C 
ATOM      8  N1  UNL     1     -90.739  65.663  -9.013  0.00  0.00    -0.172 NA
ATOM      9  N2  UNL     1     -91.859  64.827  -8.794  0.00  0.00    -0.222 N 
ATOM     10  C14 UNL     1     -92.356  64.111  -9.782  0.00  0.00    +0.253 C 
ATOM     11  O2  UNL     1     -93.479  63.301  -9.598  0.00  0.00    -0.271 OA
ATOM     12  C15 UNL     1     -91.689  64.135 -11.137  0.00  0.00    +0.091 C 
ATOM     13  C16 UNL     1     -90.591  63.056 -11.194  0.00  0.00    +0.035 C 
ATOM     14  C17 UNL     1     -89.640  63.235 -12.347  0.00  0.00    -0.030 C 
ATOM     15  C18 UNL     1     -89.480  64.405 -12.979  0.00  0.00    -0.030 C 
ATOM     16  C19 UNL     1     -90.399  65.576 -12.763  0.00  0.00    +0.032 C 
ATOM     17  C20 UNL     1     -91.117  65.539 -11.398  0.00  0.00    +0.056 C 
BRANCH   9  18
ATOM     18  C7  UNL     1     -92.465  64.877  -7.447  0.00  0.00    +0.108 C 
ATOM     19  C8  UNL     1     -92.286  66.268  -6.799  0.00  0.00    +0.024 C 
ATOM     20  C9  UNL     1     -92.969  66.400  -5.426  0.00  0.00    +0.002 C 
ATOM     21  C10 UNL     1     -92.185  65.681  -4.315  0.00  0.00    +0.000 C 
ATOM     22  C11 UNL     1     -92.566  64.201  -4.113  0.00  0.00    +0.000 C 
ATOM     23  C12 UNL     1     -92.898  63.403  -5.388  0.00  0.00    +0.002 C 
ATOM     24  C13 UNL     1     -91.965  63.698  -6.578  0.00  0.00    +0.024 C 
ENDBRANCH   9  18
ENDBRANCH   4   7
BRANCH   1  26
ATOM     25  C1  UNL     1     -86.385  71.319 -10.091  0.00  0.00    +0.253 C 
ATOM     26  O1  UNL     1     -86.229  69.951 -10.458  0.00  0.00    -0.468 OA
ENDBRANCH   1  26
BRANCH   6  27
ATOM     27  O3  UNL     1     -85.553  67.300 -10.627  0.00  0.00    -0.472 OA
BRANCH  27  28
ATOM     28  C23 UNL     1     -85.057  66.133 -11.280  0.00  0.00    +0.206 C 
BRANCH  28  29
ATOM     29  C24 UNL     1     -84.994  64.967 -10.295  0.00  0.00    +0.051 C 
BRANCH  29  30
ATOM     30  C25 UNL     1     -84.715  63.643 -11.021  0.00  0.00    +0.051 C 
BRANCH  30  31
ATOM     31  C26 UNL     1     -85.997  63.059 -11.627  0.00  0.00    +0.206 C 
BRANCH  31  32
ATOM     32  O4  UNL     1     -85.954  61.631 -11.617  0.00  0.00    -0.475 OA
BRANCH  32  33
ATOM     33  C27 UNL     1     -87.054  60.786 -11.381  0.00  0.00    +0.139 A 
ATOM     34  C28 UNL     1     -87.831  60.849 -10.207  0.00  0.00    +0.037 A 
ATOM     35  C29 UNL     1     -88.893  59.960 -10.014  0.00  0.00    +0.006 A 
ATOM     36  C30 UNL     1     -89.209  59.005 -10.993  0.00  0.00    +0.040 A 
ATOM     37  C32 UNL     1     -88.441  58.955 -12.168  0.00  0.00    +0.006 A 
ATOM     38  C33 UNL     1     -87.375  59.837 -12.358  0.00  0.00    +0.037 A 
BRANCH  36  39
ATOM     39  C31 UNL     1     -90.335  58.068 -10.791  0.00  0.00    +0.208 A 
ATOM     40  N3  UNL     1     -91.440  58.328 -10.061  0.00  0.00    -0.106 NA
ATOM     41  N4  UNL     1     -92.180  57.235 -10.128  0.00  0.00    -0.021 NA
ATOM     42  N5  UNL     1     -91.569  56.331 -10.871  0.00  0.00    -0.021 NA
ATOM     43  N6  UNL     1     -90.417  56.818 -11.299  0.00  0.00    -0.106 NA
ENDBRANCH  36  39
ENDBRANCH  32  33
ENDBRANCH  31  32
ENDBRANCH  30  31
ENDBRANCH  29  30
ENDBRANCH  28  29
ENDBRANCH  27  28
ENDBRANCH   6  27
TORSDOF 11
ENDMDL
MODEL 5
REMARK VINA RESULT:      -5.4      2.842      6.896
REMARK  Name = ./data/4wxx_site_bc02/pdb/l1c2.pdb
REMARK  11 active torsions:
REMARK  status: ('A' for Active; 'I' for Inactive)
REMARK    1  A    between atoms: O1_2  and  C2_3
REMARK    2  A    between atoms: C5_6  and  C6_7
REMARK    3  A    between atoms: N2_9  and  C7_10
REMARK    4  A    between atoms: C22_26  and  O3_27
REMARK    5  A    between atoms: O3_27  and  C23_28
REMARK    6  A    between atoms: C23_28  and  C24_29
REMARK    7  A    between atoms: C24_29  and  C25_30
REMARK    8  A    between atoms: C25_30  and  C26_31
REMARK    9  A    between atoms: C26_31  and  O4_32
REMARK   10  A    between atoms: O4_32  and  C27_33
REMARK   11  A    between atoms: C30_36  and  C31_37
REMARK                            x       y       z     vdW  Elec       q    Type
REMARK                         _______ _______ _______ _____ _____    ______ ____
ROOT
ATOM      1  C2  UNL     1     -85.648  68.035 -12.747  0.00  0.00    +0.172 A 
ATOM      2  C3  UNL     1     -86.710  68.949 -12.898  0.00  0.00    +0.040 A 
ATOM      3  C4  UNL     1     -87.688  69.067 -11.908  0.00  0.00    +0.005 A 
ATOM      4  C5  UNL     1     -87.613  68.289 -10.746  0.00  0.00    +0.018 A 
ATOM      5  C21 UNL     1     -86.577  67.352 -10.609  0.00  0.00    +0.041 A 
ATOM      6  C22 UNL     1     -85.581  67.232 -11.597  0.00  0.00    +0.172 A 
ENDROOT
BRANCH   4   7
ATOM      7  C6  UNL     1     -88.611  68.419  -9.668  0.00  0.00    +0.079 C 
ATOM      8  N1  UNL     1     -89.728  67.762  -9.794  0.00  0.00    -0.172 NA
ATOM      9  N2  UNL     1     -90.678  67.630  -8.753  0.00  0.00    -0.222 N 
ATOM     10  C14 UNL     1     -90.593  68.388  -7.678  0.00  0.00    +0.253 C 
ATOM     11  O2  UNL     1     -91.501  68.257  -6.625  0.00  0.00    -0.271 OA
ATOM     12  C15 UNL     1     -89.518  69.443  -7.586  0.00  0.00    +0.091 C 
ATOM     13  C16 UNL     1     -90.025  70.758  -8.209  0.00  0.00    +0.035 C 
ATOM     14  C17 UNL     1     -88.925  71.746  -8.491  0.00  0.00    -0.030 C 
ATOM     15  C18 UNL     1     -87.640  71.386  -8.610  0.00  0.00    -0.030 C 
ATOM     16  C19 UNL     1     -87.144  70.016  -8.236  0.00  0.00    +0.032 C 
ATOM     17  C20 UNL     1     -88.246  68.938  -8.288  0.00  0.00    +0.056 C 
BRANCH   9  18
ATOM     18  C7  UNL     1     -91.685  66.560  -8.911  0.00  0.00    +0.108 C 
ATOM     19  C8  UNL     1     -91.445  65.746 -10.202  0.00  0.00    +0.024 C 
ATOM     20  C9  UNL     1     -92.417  64.566 -10.376  0.00  0.00    +0.002 C 
ATOM     21  C10 UNL     1     -93.816  65.029 -10.819  0.00  0.00    +0.000 C 
ATOM     22  C11 UNL     1     -94.781  65.363  -9.664  0.00  0.00    +0.000 C 
ATOM     23  C12 UNL     1     -94.156  66.048  -8.433  0.00  0.00    +0.002 C 
ATOM     24  C13 UNL     1     -93.117  67.132  -8.774  0.00  0.00    +0.024 C 
ENDBRANCH   9  18
ENDBRANCH   4   7
BRANCH   1  26
ATOM     25  C1  UNL     1     -83.557  68.823 -13.874  0.00  0.00    +0.253 C 
ATOM     26  O1  UNL     1     -84.635  67.905 -13.710  0.00  0.00    -0.468 OA
ENDBRANCH   1  26
BRANCH   6  27
ATOM     27  O3  UNL     1     -84.502  66.341 -11.464  0.00  0.00    -0.472 OA
BRANCH  27  28
ATOM     28  C23 UNL     1     -84.269  65.211 -12.304  0.00  0.00    +0.206 C 
BRANCH  28  29
ATOM     29  C24 UNL     1     -85.533  64.357 -12.395  0.00  0.00    +0.051 C 
BRANCH  29  30
ATOM     30  C25 UNL     1     -85.782  63.596 -11.084  0.00  0.00    +0.051 C 
BRANCH  30  31
ATOM     31  C26 UNL     1     -87.189  62.987 -11.054  0.00  0.00    +0.206 C 
BRANCH  31  32
ATOM     32  O4  UNL     1     -87.447  62.379  -9.786  0.00  0.00    -0.475 OA
BRANCH  32  33
ATOM     33  C27 UNL     1     -88.634  62.519  -9.044  0.00  0.00    +0.139 A 
ATOM     34  C28 UNL     1     -89.698  61.597  -9.120  0.00  0.00    +0.037 A 
ATOM     35  C29 UNL     1     -90.868  61.806  -8.383  0.00  0.00    +0.006 A 
ATOM     36  C30 UNL     1     -90.991  62.926  -7.545  0.00  0.00    +0.040 A 
ATOM     37  C32 UNL     1     -89.923  63.835  -7.461  0.00  0.00    +0.006 A 
ATOM     38  C33 UNL     1     -88.757  63.631  -8.203  0.00  0.00    +0.037 A 
BRANCH  36  39
ATOM     39  C31 UNL     1     -92.226  63.145  -6.762  0.00  0.00    +0.208 A 
ATOM     40  N3  UNL     1     -92.294  63.803  -5.586  0.00  0.00    -0.106 NA
ATOM     41  N4  UNL     1     -93.564  63.761  -5.223  0.00  0.00    -0.021 NA
ATOM     42  N5  UNL     1     -94.264  63.109  -6.133  0.00  0.00    -0.021 NA
ATOM     43  N6  UNL     1     -93.460  62.711  -7.105  0.00  0.00    -0.106 NA
ENDBRANCH  36  39
ENDBRANCH  32  33
ENDBRANCH  31  32
ENDBRANCH  30  31
ENDBRANCH  29  30
ENDBRANCH  28  29
ENDBRANCH  27  28
ENDBRANCH   6  27
TORSDOF 11
ENDMDL
MODEL 6
REMARK VINA RESULT:      -5.4      2.747      7.645
REMARK  Name = ./data/4wxx_site_bc02/pdb/l1c2.pdb
REMARK  11 active torsions:
REMARK  status: ('A' for Active; 'I' for Inactive)
REMARK    1  A    between atoms: O1_2  and  C2_3
REMARK    2  A    between atoms: C5_6  and  C6_7
REMARK    3  A    between atoms: N2_9  and  C7_10
REMARK    4  A    between atoms: C22_26  and  O3_27
REMARK    5  A    between atoms: O3_27  and  C23_28
REMARK    6  A    between atoms: C23_28  and  C24_29
REMARK    7  A    between atoms: C24_29  and  C25_30
REMARK    8  A    between atoms: C25_30  and  C26_31
REMARK    9  A    between atoms: C26_31  and  O4_32
REMARK   10  A    between atoms: O4_32  and  C27_33
REMARK   11  A    between atoms: C30_36  and  C31_37
REMARK                            x       y       z     vdW  Elec       q    Type
REMARK                         _______ _______ _______ _____ _____    ______ ____
ROOT
ATOM      1  C2  UNL     1     -85.393  68.343 -12.252  0.00  0.00    +0.172 A 
ATOM      2  C3  UNL     1     -85.752  69.684 -12.490  0.00  0.00    +0.040 A 
ATOM      3  C4  UNL     1     -86.536  70.382 -11.570  0.00  0.00    +0.005 A 
ATOM      4  C5  UNL     1     -86.961  69.758 -10.389  0.00  0.00    +0.018 A 
ATOM      5  C21 UNL     1     -86.637  68.411 -10.167  0.00  0.00    +0.041 A 
ATOM      6  C22 UNL     1     -85.839  67.702 -11.084  0.00  0.00    +0.172 A 
ENDROOT
BRANCH   4   7
ATOM      7  C6  UNL     1     -87.759  70.481  -9.382  0.00  0.00    +0.079 C 
ATOM      8  N1  UNL     1     -89.045  70.276  -9.366  0.00  0.00    -0.172 NA
ATOM      9  N2  UNL     1     -89.896  70.737  -8.335  0.00  0.00    -0.222 N 
ATOM     10  C14 UNL     1     -89.461  71.624  -7.462  0.00  0.00    +0.253 C 
ATOM     11  O2  UNL     1     -90.273  72.072  -6.418  0.00  0.00    -0.271 OA
ATOM     12  C15 UNL     1     -88.071  72.197  -7.602  0.00  0.00    +0.091 C 
ATOM     13  C16 UNL     1     -88.110  73.436  -8.518  0.00  0.00    +0.035 C 
ATOM     14  C17 UNL     1     -86.750  73.857  -9.006  0.00  0.00    -0.030 C 
ATOM     15  C18 UNL     1     -85.697  73.028  -9.025  0.00  0.00    -0.030 C 
ATOM     16  C19 UNL     1     -85.708  71.689  -8.339  0.00  0.00    +0.032 C 
ATOM     17  C20 UNL     1     -87.128  71.115  -8.155  0.00  0.00    +0.056 C 
BRANCH   9  18
ATOM     18  C7  UNL     1     -91.233  70.112  -8.254  0.00  0.00    +0.108 C 
ATOM     19  C8  UNL     1     -91.141  68.642  -7.786  0.00  0.00    +0.024 C 
ATOM     20  C9  UNL     1     -92.511  67.966  -7.607  0.00  0.00    +0.002 C 
ATOM     21  C10 UNL     1     -93.154  67.592  -8.955  0.00  0.00    +0.000 C 
ATOM     22  C11 UNL     1     -94.030  68.696  -9.579  0.00  0.00    +0.000 C 
ATOM     23  C12 UNL     1     -93.532  70.143  -9.399  0.00  0.00    +0.002 C 
ATOM     24  C13 UNL     1     -92.012  70.313  -9.577  0.00  0.00    +0.024 C 
ENDBRANCH   9  18
ENDBRANCH   4   7
BRANCH   1  26
ATOM     25  C1  UNL     1     -83.593  68.196 -13.984  0.00  0.00    +0.253 C 
ATOM     26  O1  UNL     1     -84.587  67.616 -13.144  0.00  0.00    -0.468 OA
ENDBRANCH   1  26
BRANCH   6  27
ATOM     27  O3  UNL     1     -85.452  66.368 -10.863  0.00  0.00    -0.472 OA
BRANCH  27  28
ATOM     28  C23 UNL     1     -85.760  65.276 -11.728  0.00  0.00    +0.206 C 
BRANCH  28  29
ATOM     29  C24 UNL     1     -87.271  65.050 -11.770  0.00  0.00    +0.051 C 
BRANCH  29  30
ATOM     30  C25 UNL     1     -87.621  63.592 -11.435  0.00  0.00    +0.051 C 
BRANCH  30  31
ATOM     31  C26 UNL     1     -86.869  63.112 -10.188  0.00  0.00    +0.206 C 
BRANCH  31  32
ATOM     32  O4  UNL     1     -87.344  63.788  -9.022  0.00  0.00    -0.475 OA
BRANCH  32  33
ATOM     33  C27 UNL     1     -88.680  63.813  -8.585  0.00  0.00    +0.139 A 
ATOM     34  C28 UNL     1     -89.509  64.946  -8.717  0.00  0.00    +0.037 A 
ATOM     35  C29 UNL     1     -90.821  64.922  -8.233  0.00  0.00    +0.006 A 
ATOM     36  C30 UNL     1     -91.335  63.766  -7.626  0.00  0.00    +0.040 A 
ATOM     37  C32 UNL     1     -90.511  62.634  -7.509  0.00  0.00    +0.006 A 
ATOM     38  C33 UNL     1     -89.198  62.659  -7.984  0.00  0.00    +0.037 A 
BRANCH  36  39
ATOM     39  C31 UNL     1     -92.724  63.739  -7.119  0.00  0.00    +0.208 A 
ATOM     40  N3  UNL     1     -93.087  63.389  -5.867  0.00  0.00    -0.106 NA
ATOM     41  N4  UNL     1     -94.404  63.489  -5.834  0.00  0.00    -0.021 NA
ATOM     42  N5  UNL     1     -94.849  63.888  -7.012  0.00  0.00    -0.021 NA
ATOM     43  N6  UNL     1     -93.826  64.052  -7.835  0.00  0.00    -0.106 NA
ENDBRANCH  36  39
ENDBRANCH  32  33
ENDBRANCH  31  32
ENDBRANCH  30  31
ENDBRANCH  29  30
ENDBRANCH  28  29
ENDBRANCH  27  28
ENDBRANCH   6  27
TORSDOF 11
ENDMDL
MODEL 7
REMARK VINA RESULT:      -4.1     10.115     14.598
REMARK  Name = ./data/4wxx_site_bc02/pdb/l1c2.pdb
REMARK  11 active torsions:
REMARK  status: ('A' for Active; 'I' for Inactive)
REMARK    1  A    between atoms: O1_2  and  C2_3
REMARK    2  A    between atoms: C5_6  and  C6_7
REMARK    3  A    between atoms: N2_9  and  C7_10
REMARK    4  A    between atoms: C22_26  and  O3_27
REMARK    5  A    between atoms: O3_27  and  C23_28
REMARK    6  A    between atoms: C23_28  and  C24_29
REMARK    7  A    between atoms: C24_29  and  C25_30
REMARK    8  A    between atoms: C25_30  and  C26_31
REMARK    9  A    between atoms: C26_31  and  O4_32
REMARK   10  A    between atoms: O4_32  and  C27_33
REMARK   11  A    between atoms: C30_36  and  C31_37
REMARK                            x       y       z     vdW  Elec       q    Type
REMARK                         _______ _______ _______ _____ _____    ______ ____
ROOT
ATOM      1  C2  UNL     1     -81.727  68.117   3.490  0.00  0.00    +0.172 A 
ATOM      2  C3  UNL     1     -80.817  69.115   3.891  0.00  0.00    +0.040 A 
ATOM      3  C4  UNL     1     -80.463  70.143   3.015  0.00  0.00    +0.005 A 
ATOM      4  C5  UNL     1     -81.023  70.201   1.732  0.00  0.00    +0.018 A 
ATOM      5  C21 UNL     1     -81.901  69.188   1.317  0.00  0.00    +0.041 A 
ATOM      6  C22 UNL     1     -82.272  68.152   2.196  0.00  0.00    +0.172 A 
ENDROOT
BRANCH   4   7
ATOM      7  C6  UNL     1     -80.696  71.295   0.799  0.00  0.00    +0.079 C 
ATOM      8  N1  UNL     1     -81.365  72.407   0.909  0.00  0.00    -0.172 NA
ATOM      9  N2  UNL     1     -81.019  73.597   0.227  0.00  0.00    -0.222 N 
ATOM     10  C14 UNL     1     -80.146  73.566  -0.760  0.00  0.00    +0.253 C 
ATOM     11  O2  UNL     1     -79.767  74.731  -1.430  0.00  0.00    -0.271 OA
ATOM     12  C15 UNL     1     -79.561  72.247  -1.204  0.00  0.00    +0.091 C 
ATOM     13  C16 UNL     1     -80.469  71.610  -2.275  0.00  0.00    +0.035 C 
ATOM     14  C17 UNL     1     -80.174  70.154  -2.515  0.00  0.00    -0.030 C 
ATOM     15  C18 UNL     1     -79.530  69.388  -1.624  0.00  0.00    -0.030 C 
ATOM     16  C19 UNL     1     -78.830  69.958  -0.420  0.00  0.00    +0.032 C 
ATOM     17  C20 UNL     1     -79.395  71.326   0.017  0.00  0.00    +0.056 C 
BRANCH   9  18
ATOM     18  C7  UNL     1     -81.620  74.847   0.737  0.00  0.00    +0.108 C 
ATOM     19  C8  UNL     1     -80.785  75.444   1.891  0.00  0.00    +0.024 C 
ATOM     20  C9  UNL     1     -81.321  76.791   2.407  0.00  0.00    +0.002 C 
ATOM     21  C10 UNL     1     -82.576  76.620   3.282  0.00  0.00    +0.000 C 
ATOM     22  C11 UNL     1     -83.908  76.640   2.507  0.00  0.00    +0.000 C 
ATOM     23  C12 UNL     1     -83.901  75.963   1.123  0.00  0.00    +0.002 C 
ATOM     24  C13 UNL     1     -83.117  74.638   1.073  0.00  0.00    +0.024 C 
ENDBRANCH   9  18
ENDBRANCH   4   7
BRANCH   1  26
ATOM     25  C1  UNL     1     -82.116  65.698   4.003  0.00  0.00    +0.253 C 
ATOM     26  O1  UNL     1     -82.124  67.080   4.351  0.00  0.00    -0.468 OA
ENDBRANCH   1  26
BRANCH   6  27
ATOM     27  O3  UNL     1     -83.190  67.153   1.828  0.00  0.00    -0.472 OA
BRANCH  27  28
ATOM     28  C23 UNL     1     -84.570  67.140   2.190  0.00  0.00    +0.206 C 
BRANCH  28  29
ATOM     29  C24 UNL     1     -85.104  65.709   2.167  0.00  0.00    +0.051 C 
BRANCH  29  30
ATOM     30  C25 UNL     1     -85.981  65.465   0.930  0.00  0.00    +0.051 C 
BRANCH  30  31
ATOM     31  C26 UNL     1     -85.993  63.983   0.540  0.00  0.00    +0.206 C 
BRANCH  31  32
ATOM     32  O4  UNL     1     -86.371  63.825  -0.830  0.00  0.00    -0.475 OA
BRANCH  32  33
ATOM     33  C27 UNL     1     -87.673  63.984  -1.338  0.00  0.00    +0.139 A 
ATOM     34  C28 UNL     1     -88.567  62.908  -1.506  0.00  0.00    +0.037 A 
ATOM     35  C29 UNL     1     -89.838  63.123  -2.047  0.00  0.00    +0.006 A 
ATOM     36  C30 UNL     1     -90.247  64.416  -2.413  0.00  0.00    +0.040 A 
ATOM     37  C32 UNL     1     -89.359  65.489  -2.230  0.00  0.00    +0.006 A 
ATOM     38  C33 UNL     1     -88.085  65.273  -1.698  0.00  0.00    +0.037 A 
BRANCH  36  39
ATOM     39  C31 UNL     1     -91.593  64.644  -2.981  0.00  0.00    +0.208 A 
ATOM     40  N3  UNL     1     -92.447  63.674  -3.369  0.00  0.00    -0.106 NA
ATOM     41  N4  UNL     1     -93.520  64.299  -3.822  0.00  0.00    -0.021 NA
ATOM     42  N5  UNL     1     -93.348  65.604  -3.719  0.00  0.00    -0.021 NA
ATOM     43  N6  UNL     1     -92.158  65.852  -3.199  0.00  0.00    -0.106 NA
ENDBRANCH  36  39
ENDBRANCH  32  33
ENDBRANCH  31  32
ENDBRANCH  30  31
ENDBRANCH  29  30
ENDBRANCH  28  29
ENDBRANCH  27  28
ENDBRANCH   6  27
TORSDOF 11
ENDMDL
MODEL 8
REMARK VINA RESULT:      -3.9      3.308      9.168
REMARK  Name = ./data/4wxx_site_bc02/pdb/l1c2.pdb
REMARK  11 active torsions:
REMARK  status: ('A' for Active; 'I' for Inactive)
REMARK    1  A    between atoms: O1_2  and  C2_3
REMARK    2  A    between atoms: C5_6  and  C6_7
REMARK    3  A    between atoms: N2_9  and  C7_10
REMARK    4  A    between atoms: C22_26  and  O3_27
REMARK    5  A    between atoms: O3_27  and  C23_28
REMARK    6  A    between atoms: C23_28  and  C24_29
REMARK    7  A    between atoms: C24_29  and  C25_30
REMARK    8  A    between atoms: C25_30  and  C26_31
REMARK    9  A    between atoms: C26_31  and  O4_32
REMARK   10  A    between atoms: O4_32  and  C27_33
REMARK   11  A    between atoms: C30_36  and  C31_37
REMARK                            x       y       z     vdW  Elec       q    Type
REMARK                         _______ _______ _______ _____ _____    ______ ____
ROOT
ATOM      1  C2  UNL     1     -85.660  67.679 -12.419  0.00  0.00    +0.172 A 
ATOM      2  C3  UNL     1     -86.243  68.862 -12.916  0.00  0.00    +0.040 A 
ATOM      3  C4  UNL     1     -86.998  69.685 -12.078  0.00  0.00    +0.005 A 
ATOM      4  C5  UNL     1     -87.168  69.351 -10.728  0.00  0.00    +0.018 A 
ATOM      5  C21 UNL     1     -86.620  68.155 -10.239  0.00  0.00    +0.041 A 
ATOM      6  C22 UNL     1     -85.850  67.323 -11.074  0.00  0.00    +0.172 A 
ENDROOT
BRANCH   4   7
ATOM      7  C6  UNL     1     -87.928  70.221  -9.811  0.00  0.00    +0.079 C 
ATOM      8  N1  UNL     1     -89.142  69.865  -9.506  0.00  0.00    -0.172 NA
ATOM      9  N2  UNL     1     -89.906  70.485  -8.488  0.00  0.00    -0.222 N 
ATOM     10  C14 UNL     1     -89.512  71.631  -7.969  0.00  0.00    +0.253 C 
ATOM     11  O2  UNL     1     -90.232  72.248  -6.944  0.00  0.00    -0.271 OA
ATOM     12  C15 UNL     1     -88.278  72.315  -8.507  0.00  0.00    +0.091 C 
ATOM     13  C16 UNL     1     -88.663  73.228  -9.687  0.00  0.00    +0.035 C 
ATOM     14  C17 UNL     1     -87.481  73.666 -10.510  0.00  0.00    -0.030 C 
ATOM     15  C18 UNL     1     -86.313  73.009 -10.509  0.00  0.00    -0.030 C 
ATOM     16  C19 UNL     1     -85.992  71.928  -9.512  0.00  0.00    +0.032 C 
ATOM     17  C20 UNL     1     -87.249  71.251  -8.927  0.00  0.00    +0.056 C 
BRANCH   9  18
ATOM     18  C7  UNL     1     -91.087  69.741  -8.003  0.00  0.00    +0.108 C 
ATOM     19  C8  UNL     1     -90.684  68.628  -7.010  0.00  0.00    +0.024 C 
ATOM     20  C9  UNL     1     -91.884  67.873  -6.411  0.00  0.00    +0.002 C 
ATOM     21  C10 UNL     1     -92.503  66.882  -7.412  0.00  0.00    +0.000 C 
ATOM     22  C11 UNL     1     -93.609  67.476  -8.307  0.00  0.00    +0.000 C 
ATOM     23  C12 UNL     1     -93.398  68.929  -8.774  0.00  0.00    +0.002 C 
ATOM     24  C13 UNL     1     -91.952  69.254  -9.191  0.00  0.00    +0.024 C 
ENDBRANCH   9  18
ENDBRANCH   4   7
BRANCH   1  26
ATOM     25  C1  UNL     1     -85.398  65.984 -14.242  0.00  0.00    +0.253 C 
ATOM     26  O1  UNL     1     -84.877  66.838 -13.227  0.00  0.00    -0.468 OA
ENDBRANCH   1  26
BRANCH   6  27
ATOM     27  O3  UNL     1     -85.244  66.146 -10.600  0.00  0.00    -0.472 OA
BRANCH  27  28
ATOM     28  C23 UNL     1     -85.829  64.846 -10.661  0.00  0.00    +0.206 C 
BRANCH  28  29
ATOM     29  C24 UNL     1     -87.175  64.844  -9.938  0.00  0.00    +0.051 C 
BRANCH  29  30
ATOM     30  C25 UNL     1     -88.004  63.607 -10.317  0.00  0.00    +0.051 C 
BRANCH  30  31
ATOM     31  C26 UNL     1     -87.125  62.522 -10.950  0.00  0.00    +0.206 C 
BRANCH  31  32
ATOM     32  O4  UNL     1     -87.155  61.328 -10.165  0.00  0.00    -0.475 OA
BRANCH  32  33
ATOM     33  C27 UNL     1     -88.165  60.351 -10.208  0.00  0.00    +0.139 A 
ATOM     34  C28 UNL     1     -88.513  59.658 -11.385  0.00  0.00    +0.037 A 
ATOM     35  C29 UNL     1     -89.550  58.721 -11.373  0.00  0.00    +0.006 A 
ATOM     36  C30 UNL     1     -90.246  58.444 -10.186  0.00  0.00    +0.040 A 
ATOM     37  C32 UNL     1     -89.887  59.125  -9.011  0.00  0.00    +0.006 A 
ATOM     38  C33 UNL     1     -88.857  60.069  -9.024  0.00  0.00    +0.037 A 
BRANCH  36  39
ATOM     39  C31 UNL     1     -91.340  57.448 -10.172  0.00  0.00    +0.208 A 
ATOM     40  N3  UNL     1     -92.235  57.264 -11.165  0.00  0.00    -0.106 NA
ATOM     41  N4  UNL     1     -93.036  56.298 -10.752  0.00  0.00    -0.021 NA
ATOM     42  N5  UNL     1     -92.658  55.890  -9.554  0.00  0.00    -0.021 NA
ATOM     43  N6  UNL     1     -91.604  56.587  -9.165  0.00  0.00    -0.106 NA
ENDBRANCH  36  39
ENDBRANCH  32  33
ENDBRANCH  31  32
ENDBRANCH  30  31
ENDBRANCH  29  30
ENDBRANCH  28  29
ENDBRANCH  27  28
ENDBRANCH   6  27
TORSDOF 11
ENDMDL
