MODEL 1
REMARK VINA RESULT:       2.1      0.000      0.000
REMARK  Name = ./data/4wxx_site_bc02/pdb/l0c2.pdb
REMARK  11 active torsions:
REMARK  status: ('A' for Active; 'I' for Inactive)
REMARK    1  A    between atoms: O1_2  and  C2_3
REMARK    2  A    between atoms: C5_6  and  C6_7
REMARK    3  A    between atoms: N2_9  and  C7_10
REMARK    4  A    between atoms: C19_23  and  O3_24
REMARK    5  A    between atoms: O3_24  and  C20_25
REMARK    6  A    between atoms: C20_25  and  C21_26
REMARK    7  A    between atoms: C21_26  and  C22_27
REMARK    8  A    between atoms: C22_27  and  C23_28
REMARK    9  A    between atoms: C23_28  and  O4_29
REMARK   10  A    between atoms: O4_29  and  C24_30
REMARK   11  A    between atoms: C27_33  and  C28_34
REMARK                            x       y       z     vdW  Elec       q    Type
REMARK                         _______ _______ _______ _____ _____    ______ ____
ROOT
ATOM      1  C2  UNL     1     -83.514  50.550   9.410  0.00  0.00    +0.172 A 
ATOM      2  C3  UNL     1     -84.410  50.153  10.417  0.00  0.00    +0.040 A 
ATOM      3  C4  UNL     1     -85.662  50.758  10.532  0.00  0.00    +0.005 A 
ATOM      4  C5  UNL     1     -86.050  51.783   9.652  0.00  0.00    +0.019 A 
ATOM      5  C18 UNL     1     -85.144  52.178   8.647  0.00  0.00    +0.041 A 
ATOM      6  C19 UNL     1     -83.886  51.562   8.515  0.00  0.00    +0.172 A 
ENDROOT
BRANCH   4   7
ATOM      7  C6  UNL     1     -87.381  52.454   9.744  0.00  0.00    +0.086 C 
ATOM      8  N1  UNL     1     -87.489  53.741   9.637  0.00  0.00    -0.171 NA
ATOM      9  N2  UNL     1     -88.827  54.121   9.724  0.00  0.00    -0.222 N 
ATOM     10  C14 UNL     1     -89.574  53.075   9.869  0.00  0.00    +0.257 C 
ATOM     11  O2  UNL     1     -90.964  53.131   9.955  0.00  0.00    -0.270 OA
ATOM     12  C15 UNL     1     -88.752  51.820   9.931  0.00  0.00    +0.110 C 
ATOM     13  C16 UNL     1     -89.138  50.887   8.772  0.00  0.00    +0.015 C 
ATOM     14  C17 UNL     1     -88.928  51.166  11.313  0.00  0.00    +0.015 C 
BRANCH   9  15
ATOM     15  C7  UNL     1     -89.262  55.520   9.611  0.00  0.00    +0.108 C 
ATOM     16  C8  UNL     1     -89.213  55.964   8.131  0.00  0.00    +0.024 C 
ATOM     17  C9  UNL     1     -89.218  57.486   7.942  0.00  0.00    +0.002 C 
ATOM     18  C10 UNL     1     -90.446  58.182   8.548  0.00  0.00    +0.000 C 
ATOM     19  C11 UNL     1     -90.356  58.292  10.079  0.00  0.00    +0.000 C 
ATOM     20  C12 UNL     1     -90.933  57.084  10.840  0.00  0.00    +0.002 C 
ATOM     21  C13 UNL     1     -90.674  55.699  10.218  0.00  0.00    +0.024 C 
ENDBRANCH   9  15
ENDBRANCH   4   7
BRANCH   1  23
ATOM     22  C1  UNL     1     -81.261  49.900  10.289  0.00  0.00    +0.253 C 
ATOM     23  O1  UNL     1     -82.248  49.960   9.264  0.00  0.00    -0.468 OA
ENDBRANCH   1  23
BRANCH   6  24
ATOM     24  O3  UNL     1     -82.970  51.922   7.510  0.00  0.00    -0.472 OA
BRANCH  24  25
ATOM     25  C20 UNL     1     -82.727  51.198   6.303  0.00  0.00    +0.206 C 
BRANCH  25  26
ATOM     26  C21 UNL     1     -81.840  49.975   6.576  0.00  0.00    +0.051 C 
BRANCH  26  27
ATOM     27  C22 UNL     1     -80.465  50.085   5.901  0.00  0.00    +0.051 C 
BRANCH  27  28
ATOM     28  C23 UNL     1     -80.086  48.814   5.129  0.00  0.00    +0.206 C 
BRANCH  28  29
ATOM     29  O4  UNL     1     -80.306  48.998   3.730  0.00  0.00    -0.475 OA
BRANCH  29  30
ATOM     30  C24 UNL     1     -81.526  49.365   3.138  0.00  0.00    +0.139 A 
ATOM     31  C25 UNL     1     -82.582  48.456   2.938  0.00  0.00    +0.037 A 
ATOM     32  C26 UNL     1     -83.776  48.878   2.348  0.00  0.00    +0.006 A 
ATOM     33  C27 UNL     1     -83.944  50.216   1.948  0.00  0.00    +0.040 A 
ATOM     34  C29 UNL     1     -82.886  51.119   2.150  0.00  0.00    +0.006 A 
ATOM     35  C30 UNL     1     -81.692  50.695   2.740  0.00  0.00    +0.037 A 
BRANCH  33  36
ATOM     36  C28 UNL     1     -85.215  50.666   1.329  0.00  0.00    +0.208 A 
ATOM     37  N3  UNL     1     -86.367  49.961   1.312  0.00  0.00    -0.106 NA
ATOM     38  N4  UNL     1     -87.240  50.713   0.664  0.00  0.00    -0.021 NA
ATOM     39  N5  UNL     1     -86.661  51.841   0.293  0.00  0.00    -0.021 NA
ATOM     40  N6  UNL     1     -85.400  51.842   0.690  0.00  0.00    -0.106 NA
ENDBRANCH  33  36
ENDBRANCH  29  30
ENDBRANCH  28  29
ENDBRANCH  27  28
ENDBRANCH  26  27
ENDBRANCH  25  26
ENDBRANCH  24  25
ENDBRANCH   6  24
TORSDOF 11
ENDMDL
