MODEL 1
REMARK VINA RESULT:      -7.4      0.000      0.000
REMARK  Name = ./data/4wxx_site_bc02/pdb/l1c0.pdb
REMARK  11 active torsions:
REMARK  status: ('A' for Active; 'I' for Inactive)
REMARK    1  A    between atoms: O1_2  and  C2_3
REMARK    2  A    between atoms: C5_6  and  C6_7
REMARK    3  A    between atoms: N2_9  and  C7_10
REMARK    4  A    between atoms: C22_26  and  O3_27
REMARK    5  A    between atoms: O3_27  and  C23_28
REMARK    6  A    between atoms: C23_28  and  C24_29
REMARK    7  A    between atoms: C24_29  and  C25_30
REMARK    8  A    between atoms: C25_30  and  C26_31
REMARK    9  A    between atoms: C26_31  and  O4_32
REMARK   10  A    between atoms: O4_32  and  C27_33
REMARK   11  A    between atoms: C30_36  and  C31_37
REMARK                            x       y       z     vdW  Elec       q    Type
REMARK                         _______ _______ _______ _____ _____    ______ ____
ROOT
ATOM      1  C2  UNL     1     -86.682  60.869  19.103  0.00  0.00    +0.172 A 
ATOM      2  C3  UNL     1     -86.531  61.405  20.392  0.00  0.00    +0.040 A 
ATOM      3  C4  UNL     1     -85.974  60.638  21.416  0.00  0.00    +0.005 A 
ATOM      4  C5  UNL     1     -85.546  59.319  21.180  0.00  0.00    +0.018 A 
ATOM      5  C21 UNL     1     -85.686  58.792  19.882  0.00  0.00    +0.041 A 
ATOM      6  C22 UNL     1     -86.272  59.552  18.848  0.00  0.00    +0.172 A 
ENDROOT
BRANCH   4   7
ATOM      7  C6  UNL     1     -84.953  58.520  22.297  0.00  0.00    +0.079 C 
ATOM      8  N1  UNL     1     -83.662  58.368  22.338  0.00  0.00    -0.172 NA
ATOM      9  N2  UNL     1     -82.981  57.639  23.334  0.00  0.00    -0.222 N 
ATOM     10  C14 UNL     1     -83.589  57.287  24.445  0.00  0.00    +0.253 C 
ATOM     11  O2  UNL     1     -82.863  56.654  25.460  0.00  0.00    -0.271 OA
ATOM     12  C15 UNL     1     -85.054  57.645  24.663  0.00  0.00    +0.091 C 
ATOM     13  C16 UNL     1     -85.808  56.621  25.537  0.00  0.00    +0.035 C 
ATOM     14  C17 UNL     1     -85.804  55.285  24.859  0.00  0.00    -0.030 C 
ATOM     15  C18 UNL     1     -86.008  55.209  23.538  0.00  0.00    -0.030 C 
ATOM     16  C19 UNL     1     -86.325  56.436  22.714  0.00  0.00    +0.032 C 
ATOM     17  C20 UNL     1     -85.808  57.788  23.310  0.00  0.00    +0.056 C 
BRANCH   9  18
ATOM     18  C7  UNL     1     -81.548  57.371  23.090  0.00  0.00    +0.108 C 
ATOM     19  C8  UNL     1     -81.354  56.456  21.852  0.00  0.00    +0.024 C 
ATOM     20  C9  UNL     1     -80.117  55.551  21.974  0.00  0.00    +0.002 C 
ATOM     21  C10 UNL     1     -78.797  56.276  21.691  0.00  0.00    +0.000 C 
ATOM     22  C11 UNL     1     -78.526  57.449  22.643  0.00  0.00    +0.000 C 
ATOM     23  C12 UNL     1     -79.402  58.671  22.322  0.00  0.00    +0.002 C 
ATOM     24  C13 UNL     1     -80.739  58.697  23.078  0.00  0.00    +0.024 C 
ENDBRANCH   9  18
ENDBRANCH   4   7
BRANCH   1  26
ATOM     25  C1  UNL     1     -87.401  63.024  18.058  0.00  0.00    +0.253 C 
ATOM     26  O1  UNL     1     -87.237  61.610  18.048  0.00  0.00    -0.468 OA
ENDBRANCH   1  26
BRANCH   6  27
ATOM     27  O3  UNL     1     -86.463  59.043  17.552  0.00  0.00    -0.472 OA
BRANCH  27  28
ATOM     28  C23 UNL     1     -86.452  57.663  17.189  0.00  0.00    +0.206 C 
BRANCH  28  29
ATOM     29  C24 UNL     1     -87.840  57.044  17.379  0.00  0.00    +0.051 C 
BRANCH  29  30
ATOM     30  C25 UNL     1     -87.742  55.613  17.921  0.00  0.00    +0.051 C 
BRANCH  30  31
ATOM     31  C26 UNL     1     -87.582  55.602  19.441  0.00  0.00    +0.206 C 
BRANCH  31  32
ATOM     32  O4  UNL     1     -86.672  54.568  19.813  0.00  0.00    -0.475 OA
BRANCH  32  33
ATOM     33  C27 UNL     1     -85.305  54.557  19.505  0.00  0.00    +0.139 A 
ATOM     34  C28 UNL     1     -84.625  53.339  19.570  0.00  0.00    +0.037 A 
ATOM     35  C29 UNL     1     -83.256  53.272  19.307  0.00  0.00    +0.006 A 
ATOM     36  C30 UNL     1     -82.537  54.430  18.952  0.00  0.00    +0.040 A 
ATOM     37  C32 UNL     1     -83.230  55.654  18.862  0.00  0.00    +0.006 A 
ATOM     38  C33 UNL     1     -84.599  55.718  19.142  0.00  0.00    +0.037 A 
BRANCH  36  39
ATOM     39  C31 UNL     1     -81.077  54.362  18.686  0.00  0.00    +0.208 A 
ATOM     40  N3  UNL     1     -80.254  55.426  18.560  0.00  0.00    -0.106 NA
ATOM     41  N4  UNL     1     -79.048  54.925  18.354  0.00  0.00    -0.021 NA
ATOM     42  N5  UNL     1     -79.113  53.605  18.347  0.00  0.00    -0.021 NA
ATOM     43  N6  UNL     1     -80.360  53.223  18.553  0.00  0.00    -0.106 NA
ENDBRANCH  36  39
ENDBRANCH  32  33
ENDBRANCH  31  32
ENDBRANCH  30  31
ENDBRANCH  29  30
ENDBRANCH  28  29
ENDBRANCH  27  28
ENDBRANCH   6  27
TORSDOF 11
ENDMDL
MODEL 2
REMARK VINA RESULT:      -7.2      1.990      2.785
REMARK  Name = ./data/4wxx_site_bc02/pdb/l1c0.pdb
REMARK  11 active torsions:
REMARK  status: ('A' for Active; 'I' for Inactive)
REMARK    1  A    between atoms: O1_2  and  C2_3
REMARK    2  A    between atoms: C5_6  and  C6_7
REMARK    3  A    between atoms: N2_9  and  C7_10
REMARK    4  A    between atoms: C22_26  and  O3_27
REMARK    5  A    between atoms: O3_27  and  C23_28
REMARK    6  A    between atoms: C23_28  and  C24_29
REMARK    7  A    between atoms: C24_29  and  C25_30
REMARK    8  A    between atoms: C25_30  and  C26_31
REMARK    9  A    between atoms: C26_31  and  O4_32
REMARK   10  A    between atoms: O4_32  and  C27_33
REMARK   11  A    between atoms: C30_36  and  C31_37
REMARK                            x       y       z     vdW  Elec       q    Type
REMARK                         _______ _______ _______ _____ _____    ______ ____
ROOT
ATOM      1  C2  UNL     1     -86.643  60.014  19.299  0.00  0.00    +0.172 A 
ATOM      2  C3  UNL     1     -86.100  60.576  20.466  0.00  0.00    +0.040 A 
ATOM      3  C4  UNL     1     -85.758  59.765  21.548  0.00  0.00    +0.005 A 
ATOM      4  C5  UNL     1     -85.941  58.372  21.494  0.00  0.00    +0.018 A 
ATOM      5  C21 UNL     1     -86.474  57.812  20.316  0.00  0.00    +0.041 A 
ATOM      6  C22 UNL     1     -86.846  58.629  19.227  0.00  0.00    +0.172 A 
ENDROOT
BRANCH   4   7
ATOM      7  C6  UNL     1     -85.567  57.527  22.670  0.00  0.00    +0.079 C 
ATOM      8  N1  UNL     1     -84.330  57.530  23.070  0.00  0.00    -0.172 NA
ATOM      9  N2  UNL     1     -83.849  56.779  24.163  0.00  0.00    -0.222 N 
ATOM     10  C14 UNL     1     -84.679  56.229  25.020  0.00  0.00    +0.253 C 
ATOM     11  O2  UNL     1     -84.175  55.575  26.149  0.00  0.00    -0.271 OA
ATOM     12  C15 UNL     1     -86.184  56.377  24.831  0.00  0.00    +0.091 C 
ATOM     13  C16 UNL     1     -86.987  55.175  25.369  0.00  0.00    +0.035 C 
ATOM     14  C17 UNL     1     -86.597  53.937  24.621  0.00  0.00    -0.030 C 
ATOM     15  C18 UNL     1     -86.415  53.990  23.296  0.00  0.00    -0.030 C 
ATOM     16  C19 UNL     1     -86.672  55.257  22.512  0.00  0.00    +0.032 C 
ATOM     17  C20 UNL     1     -86.548  56.584  23.334  0.00  0.00    +0.056 C 
BRANCH   9  18
ATOM     18  C7  UNL     1     -82.380  56.718  24.324  0.00  0.00    +0.108 C 
ATOM     19  C8  UNL     1     -81.657  57.126  23.013  0.00  0.00    +0.024 C 
ATOM     20  C9  UNL     1     -80.314  56.400  22.829  0.00  0.00    +0.002 C 
ATOM     21  C10 UNL     1     -79.181  56.982  23.679  0.00  0.00    +0.000 C 
ATOM     22  C11 UNL     1     -79.457  56.928  25.187  0.00  0.00    +0.000 C 
ATOM     23  C12 UNL     1     -80.486  57.982  25.627  0.00  0.00    +0.002 C 
ATOM     24  C13 UNL     1     -81.940  57.485  25.601  0.00  0.00    +0.024 C 
ENDBRANCH   9  18
ENDBRANCH   4   7
BRANCH   1  26
ATOM     25  C1  UNL     1     -86.755  62.197  18.083  0.00  0.00    +0.253 C 
ATOM     26  O1  UNL     1     -86.999  60.798  18.190  0.00  0.00    -0.468 OA
ENDBRANCH   1  26
BRANCH   6  27
ATOM     27  O3  UNL     1     -87.416  58.107  18.054  0.00  0.00    -0.472 OA
BRANCH  27  28
ATOM     28  C23 UNL     1     -87.011  56.910  17.390  0.00  0.00    +0.206 C 
BRANCH  28  29
ATOM     29  C24 UNL     1     -85.497  56.908  17.156  0.00  0.00    +0.051 C 
BRANCH  29  30
ATOM     30  C25 UNL     1     -84.839  55.671  17.778  0.00  0.00    +0.051 C 
BRANCH  30  31
ATOM     31  C26 UNL     1     -83.816  56.060  18.844  0.00  0.00    +0.206 C 
BRANCH  31  32
ATOM     32  O4  UNL     1     -82.503  55.986  18.289  0.00  0.00    -0.475 OA
BRANCH  32  33
ATOM     33  C27 UNL     1     -81.403  55.387  18.916  0.00  0.00    +0.139 A 
ATOM     34  C28 UNL     1     -80.154  55.997  18.780  0.00  0.00    +0.037 A 
ATOM     35  C29 UNL     1     -79.016  55.428  19.354  0.00  0.00    +0.006 A 
ATOM     36  C30 UNL     1     -79.109  54.236  20.098  0.00  0.00    +0.040 A 
ATOM     37  C32 UNL     1     -80.374  53.635  20.256  0.00  0.00    +0.006 A 
ATOM     38  C33 UNL     1     -81.509  54.201  19.666  0.00  0.00    +0.037 A 
BRANCH  36  39
ATOM     39  C31 UNL     1     -77.896  53.622  20.698  0.00  0.00    +0.208 A 
ATOM     40  N3  UNL     1     -77.415  52.395  20.406  0.00  0.00    -0.106 NA
ATOM     41  N4  UNL     1     -76.321  52.255  21.136  0.00  0.00    -0.021 NA
ATOM     42  N5  UNL     1     -76.128  53.345  21.857  0.00  0.00    -0.021 NA
ATOM     43  N6  UNL     1     -77.088  54.216  21.605  0.00  0.00    -0.106 NA
ENDBRANCH  36  39
ENDBRANCH  32  33
ENDBRANCH  31  32
ENDBRANCH  30  31
ENDBRANCH  29  30
ENDBRANCH  28  29
ENDBRANCH  27  28
ENDBRANCH   6  27
TORSDOF 11
ENDMDL
MODEL 3
REMARK VINA RESULT:      -7.1      3.106      6.876
REMARK  Name = ./data/4wxx_site_bc02/pdb/l1c0.pdb
REMARK  11 active torsions:
REMARK  status: ('A' for Active; 'I' for Inactive)
REMARK    1  A    between atoms: O1_2  and  C2_3
REMARK    2  A    between atoms: C5_6  and  C6_7
REMARK    3  A    between atoms: N2_9  and  C7_10
REMARK    4  A    between atoms: C22_26  and  O3_27
REMARK    5  A    between atoms: O3_27  and  C23_28
REMARK    6  A    between atoms: C23_28  and  C24_29
REMARK    7  A    between atoms: C24_29  and  C25_30
REMARK    8  A    between atoms: C25_30  and  C26_31
REMARK    9  A    between atoms: C26_31  and  O4_32
REMARK   10  A    between atoms: O4_32  and  C27_33
REMARK   11  A    between atoms: C30_36  and  C31_37
REMARK                            x       y       z     vdW  Elec       q    Type
REMARK                         _______ _______ _______ _____ _____    ______ ____
ROOT
ATOM      1  C2  UNL     1     -79.745  56.668  21.702  0.00  0.00    +0.172 A 
ATOM      2  C3  UNL     1     -79.808  57.509  22.825  0.00  0.00    +0.040 A 
ATOM      3  C4  UNL     1     -81.023  57.734  23.472  0.00  0.00    +0.005 A 
ATOM      4  C5  UNL     1     -82.206  57.121  23.022  0.00  0.00    +0.018 A 
ATOM      5  C21 UNL     1     -82.134  56.268  21.904  0.00  0.00    +0.041 A 
ATOM      6  C22 UNL     1     -80.914  56.055  21.229  0.00  0.00    +0.172 A 
ENDROOT
BRANCH   4   7
ATOM      7  C6  UNL     1     -83.495  57.381  23.734  0.00  0.00    +0.079 C 
ATOM      8  N1  UNL     1     -84.244  56.369  24.058  0.00  0.00    -0.172 NA
ATOM      9  N2  UNL     1     -85.478  56.478  24.730  0.00  0.00    -0.222 N 
ATOM     10  C14 UNL     1     -85.830  57.602  25.314  0.00  0.00    +0.253 C 
ATOM     11  O2  UNL     1     -87.013  57.654  26.059  0.00  0.00    -0.271 OA
ATOM     12  C15 UNL     1     -84.911  58.816  25.255  0.00  0.00    +0.091 C 
ATOM     13  C16 UNL     1     -85.672  60.158  25.280  0.00  0.00    +0.035 C 
ATOM     14  C17 UNL     1     -86.560  60.252  24.078  0.00  0.00    -0.030 C 
ATOM     15  C18 UNL     1     -86.112  59.841  22.885  0.00  0.00    -0.030 C 
ATOM     16  C19 UNL     1     -84.693  59.354  22.698  0.00  0.00    +0.032 C 
ATOM     17  C20 UNL     1     -84.011  58.782  23.987  0.00  0.00    +0.056 C 
BRANCH   9  18
ATOM     18  C7  UNL     1     -86.301  55.252  24.802  0.00  0.00    +0.108 C 
ATOM     19  C8  UNL     1     -86.299  54.498  23.445  0.00  0.00    +0.024 C 
ATOM     20  C9  UNL     1     -87.615  53.746  23.186  0.00  0.00    +0.002 C 
ATOM     21  C10 UNL     1     -87.729  52.429  23.959  0.00  0.00    +0.000 C 
ATOM     22  C11 UNL     1     -87.666  52.604  25.482  0.00  0.00    +0.000 C 
ATOM     23  C12 UNL     1     -86.240  52.904  25.973  0.00  0.00    +0.002 C 
ATOM     24  C13 UNL     1     -85.905  54.403  26.041  0.00  0.00    +0.024 C 
ENDBRANCH   9  18
ENDBRANCH   4   7
BRANCH   1  26
ATOM     25  C1  UNL     1     -77.470  55.640  21.552  0.00  0.00    +0.253 C 
ATOM     26  O1  UNL     1     -78.541  56.416  21.026  0.00  0.00    -0.468 OA
ENDBRANCH   1  26
BRANCH   6  27
ATOM     27  O3  UNL     1     -80.815  55.242  20.087  0.00  0.00    -0.472 OA
BRANCH  27  28
ATOM     28  C23 UNL     1     -80.865  53.815  20.073  0.00  0.00    +0.206 C 
BRANCH  28  29
ATOM     29  C24 UNL     1     -82.313  53.327  19.977  0.00  0.00    +0.051 C 
BRANCH  29  30
ATOM     30  C25 UNL     1     -82.949  53.730  18.641  0.00  0.00    +0.051 C 
BRANCH  30  31
ATOM     31  C26 UNL     1     -84.140  54.664  18.850  0.00  0.00    +0.206 C 
BRANCH  31  32
ATOM     32  O4  UNL     1     -84.067  55.741  17.917  0.00  0.00    -0.475 OA
BRANCH  32  33
ATOM     33  C27 UNL     1     -84.645  57.003  18.106  0.00  0.00    +0.139 A 
ATOM     34  C28 UNL     1     -84.551  57.933  17.068  0.00  0.00    +0.037 A 
ATOM     35  C29 UNL     1     -85.078  59.217  17.212  0.00  0.00    +0.006 A 
ATOM     36  C30 UNL     1     -85.733  59.594  18.401  0.00  0.00    +0.040 A 
ATOM     37  C32 UNL     1     -85.851  58.646  19.437  0.00  0.00    +0.006 A 
ATOM     38  C33 UNL     1     -85.307  57.365  19.294  0.00  0.00    +0.037 A 
BRANCH  36  39
ATOM     39  C31 UNL     1     -86.283  60.965  18.559  0.00  0.00    +0.208 A 
ATOM     40  N3  UNL     1     -86.245  61.697  19.694  0.00  0.00    -0.106 NA
ATOM     41  N4  UNL     1     -86.816  62.851  19.397  0.00  0.00    -0.021 NA
ATOM     42  N5  UNL     1     -87.199  62.842  18.132  0.00  0.00    -0.021 NA
ATOM     43  N6  UNL     1     -86.879  61.685  17.583  0.00  0.00    -0.106 NA
ENDBRANCH  36  39
ENDBRANCH  32  33
ENDBRANCH  31  32
ENDBRANCH  30  31
ENDBRANCH  29  30
ENDBRANCH  28  29
ENDBRANCH  27  28
ENDBRANCH   6  27
TORSDOF 11
ENDMDL
MODEL 4
REMARK VINA RESULT:      -5.8      2.618      4.294
REMARK  Name = ./data/4wxx_site_bc02/pdb/l1c0.pdb
REMARK  11 active torsions:
REMARK  status: ('A' for Active; 'I' for Inactive)
REMARK    1  A    between atoms: O1_2  and  C2_3
REMARK    2  A    between atoms: C5_6  and  C6_7
REMARK    3  A    between atoms: N2_9  and  C7_10
REMARK    4  A    between atoms: C22_26  and  O3_27
REMARK    5  A    between atoms: O3_27  and  C23_28
REMARK    6  A    between atoms: C23_28  and  C24_29
REMARK    7  A    between atoms: C24_29  and  C25_30
REMARK    8  A    between atoms: C25_30  and  C26_31
REMARK    9  A    between atoms: C26_31  and  O4_32
REMARK   10  A    between atoms: O4_32  and  C27_33
REMARK   11  A    between atoms: C30_36  and  C31_37
REMARK                            x       y       z     vdW  Elec       q    Type
REMARK                         _______ _______ _______ _____ _____    ______ ____
ROOT
ATOM      1  C2  UNL     1     -85.761  57.269  19.834  0.00  0.00    +0.172 A 
ATOM      2  C3  UNL     1     -85.246  58.320  20.610  0.00  0.00    +0.040 A 
ATOM      3  C4  UNL     1     -85.196  58.214  21.999  0.00  0.00    +0.005 A 
ATOM      4  C5  UNL     1     -85.650  57.055  22.653  0.00  0.00    +0.018 A 
ATOM      5  C21 UNL     1     -86.152  55.998  21.869  0.00  0.00    +0.041 A 
ATOM      6  C22 UNL     1     -86.230  56.108  20.465  0.00  0.00    +0.172 A 
ENDROOT
BRANCH   4   7
ATOM      7  C6  UNL     1     -85.584  56.968  24.144  0.00  0.00    +0.079 C 
ATOM      8  N1  UNL     1     -84.676  57.658  24.770  0.00  0.00    -0.172 NA
ATOM      9  N2  UNL     1     -84.509  57.664  26.170  0.00  0.00    -0.222 N 
ATOM     10  C14 UNL     1     -85.439  57.176  26.961  0.00  0.00    +0.253 C 
ATOM     11  O2  UNL     1     -85.294  57.285  28.348  0.00  0.00    -0.271 OA
ATOM     12  C15 UNL     1     -86.708  56.575  26.371  0.00  0.00    +0.091 C 
ATOM     13  C16 UNL     1     -87.306  55.445  27.235  0.00  0.00    +0.035 C 
ATOM     14  C17 UNL     1     -86.323  54.319  27.337  0.00  0.00    -0.030 C 
ATOM     15  C18 UNL     1     -85.629  53.942  26.255  0.00  0.00    -0.030 C 
ATOM     16  C19 UNL     1     -85.868  54.572  24.902  0.00  0.00    +0.032 C 
ATOM     17  C20 UNL     1     -86.459  56.021  24.939  0.00  0.00    +0.056 C 
BRANCH   9  18
ATOM     18  C7  UNL     1     -83.284  58.311  26.684  0.00  0.00    +0.108 C 
ATOM     19  C8  UNL     1     -82.126  57.286  26.821  0.00  0.00    +0.024 C 
ATOM     20  C9  UNL     1     -81.170  57.626  27.976  0.00  0.00    +0.002 C 
ATOM     21  C10 UNL     1     -80.185  58.750  27.645  0.00  0.00    +0.000 C 
ATOM     22  C11 UNL     1     -80.866  60.079  27.292  0.00  0.00    +0.000 C 
ATOM     23  C12 UNL     1     -81.492  60.054  25.887  0.00  0.00    +0.002 C 
ATOM     24  C13 UNL     1     -82.956  59.588  25.863  0.00  0.00    +0.024 C 
ENDBRANCH   9  18
ENDBRANCH   4   7
BRANCH   1  26
ATOM     25  C1  UNL     1     -84.783  57.838  17.603  0.00  0.00    +0.253 C 
ATOM     26  O1  UNL     1     -85.827  57.339  18.433  0.00  0.00    -0.468 OA
ENDBRANCH   1  26
BRANCH   6  27
ATOM     27  O3  UNL     1     -86.762  55.089  19.656  0.00  0.00    -0.472 OA
BRANCH  27  28
ATOM     28  C23 UNL     1     -86.021  54.023  19.063  0.00  0.00    +0.206 C 
BRANCH  28  29
ATOM     29  C24 UNL     1     -85.548  53.034  20.132  0.00  0.00    +0.051 C 
BRANCH  29  30
ATOM     30  C25 UNL     1     -84.036  52.794  20.038  0.00  0.00    +0.051 C 
BRANCH  30  31
ATOM     31  C26 UNL     1     -83.541  52.917  18.598  0.00  0.00    +0.206 C 
BRANCH  31  32
ATOM     32  O4  UNL     1     -82.795  54.125  18.456  0.00  0.00    -0.475 OA
BRANCH  32  33
ATOM     33  C27 UNL     1     -82.018  54.709  19.465  0.00  0.00    +0.139 A 
ATOM     34  C28 UNL     1     -82.627  55.639  20.311  0.00  0.00    +0.037 A 
ATOM     35  C29 UNL     1     -81.894  56.278  21.312  0.00  0.00    +0.006 A 
ATOM     36  C30 UNL     1     -80.530  55.982  21.502  0.00  0.00    +0.040 A 
ATOM     37  C32 UNL     1     -79.924  55.025  20.664  0.00  0.00    +0.006 A 
ATOM     38  C33 UNL     1     -80.658  54.399  19.652  0.00  0.00    +0.037 A 
BRANCH  36  39
ATOM     39  C31 UNL     1     -79.747  56.672  22.559  0.00  0.00    +0.208 A 
ATOM     40  N3  UNL     1     -78.650  57.432  22.350  0.00  0.00    -0.106 NA
ATOM     41  N4  UNL     1     -78.283  57.869  23.543  0.00  0.00    -0.021 NA
ATOM     42  N5  UNL     1     -79.111  57.401  24.460  0.00  0.00    -0.021 NA
ATOM     43  N6  UNL     1     -80.034  56.655  23.881  0.00  0.00    -0.106 NA
ENDBRANCH  36  39
ENDBRANCH  32  33
ENDBRANCH  31  32
ENDBRANCH  30  31
ENDBRANCH  29  30
ENDBRANCH  28  29
ENDBRANCH  27  28
ENDBRANCH   6  27
TORSDOF 11
ENDMDL
MODEL 5
REMARK VINA RESULT:      -5.7      3.331      6.671
REMARK  Name = ./data/4wxx_site_bc02/pdb/l1c0.pdb
REMARK  11 active torsions:
REMARK  status: ('A' for Active; 'I' for Inactive)
REMARK    1  A    between atoms: O1_2  and  C2_3
REMARK    2  A    between atoms: C5_6  and  C6_7
REMARK    3  A    between atoms: N2_9  and  C7_10
REMARK    4  A    between atoms: C22_26  and  O3_27
REMARK    5  A    between atoms: O3_27  and  C23_28
REMARK    6  A    between atoms: C23_28  and  C24_29
REMARK    7  A    between atoms: C24_29  and  C25_30
REMARK    8  A    between atoms: C25_30  and  C26_31
REMARK    9  A    between atoms: C26_31  and  O4_32
REMARK   10  A    between atoms: O4_32  and  C27_33
REMARK   11  A    between atoms: C30_36  and  C31_37
REMARK                            x       y       z     vdW  Elec       q    Type
REMARK                         _______ _______ _______ _____ _____    ______ ____
ROOT
ATOM      1  C2  UNL     1     -79.045  56.491  22.809  0.00  0.00    +0.172 A 
ATOM      2  C3  UNL     1     -79.431  56.916  24.090  0.00  0.00    +0.040 A 
ATOM      3  C4  UNL     1     -80.775  57.150  24.382  0.00  0.00    +0.005 A 
ATOM      4  C5  UNL     1     -81.771  56.959  23.408  0.00  0.00    +0.018 A 
ATOM      5  C21 UNL     1     -81.380  56.518  22.129  0.00  0.00    +0.041 A 
ATOM      6  C22 UNL     1     -80.020  56.304  21.818  0.00  0.00    +0.172 A 
ENDROOT
BRANCH   4   7
ATOM      7  C6  UNL     1     -83.204  57.217  23.749  0.00  0.00    +0.079 C 
ATOM      8  N1  UNL     1     -84.016  56.206  23.838  0.00  0.00    -0.172 NA
ATOM      9  N2  UNL     1     -85.386  56.315  24.151  0.00  0.00    -0.222 N 
ATOM     10  C14 UNL     1     -85.879  57.431  24.640  0.00  0.00    +0.253 C 
ATOM     11  O2  UNL     1     -87.220  57.480  25.037  0.00  0.00    -0.271 OA
ATOM     12  C15 UNL     1     -84.974  58.638  24.856  0.00  0.00    +0.091 C 
ATOM     13  C16 UNL     1     -85.708  59.985  24.700  0.00  0.00    +0.035 C 
ATOM     14  C17 UNL     1     -86.237  60.109  23.303  0.00  0.00    -0.030 C 
ATOM     15  C18 UNL     1     -85.482  59.715  22.269  0.00  0.00    -0.030 C 
ATOM     16  C19 UNL     1     -84.068  59.218  22.465  0.00  0.00    +0.032 C 
ATOM     17  C20 UNL     1     -83.764  58.618  23.879  0.00  0.00    +0.056 C 
BRANCH   9  18
ATOM     18  C7  UNL     1     -86.202  55.094  23.974  0.00  0.00    +0.108 C 
ATOM     19  C8  UNL     1     -85.833  54.363  22.654  0.00  0.00    +0.024 C 
ATOM     20  C9  UNL     1     -87.031  53.627  22.033  0.00  0.00    +0.002 C 
ATOM     21  C10 UNL     1     -87.358  52.298  22.721  0.00  0.00    +0.000 C 
ATOM     22  C11 UNL     1     -87.712  52.448  24.207  0.00  0.00    +0.000 C 
ATOM     23  C12 UNL     1     -86.473  52.727  25.073  0.00  0.00    +0.002 C 
ATOM     24  C13 UNL     1     -86.163  54.221  25.258  0.00  0.00    +0.024 C 
ENDBRANCH   9  18
ENDBRANCH   4   7
BRANCH   1  26
ATOM     25  C1  UNL     1     -77.105  54.953  22.456  0.00  0.00    +0.253 C 
ATOM     26  O1  UNL     1     -77.704  56.245  22.478  0.00  0.00    -0.468 OA
ENDBRANCH   1  26
BRANCH   6  27
ATOM     27  O3  UNL     1     -79.592  55.903  20.541  0.00  0.00    -0.472 OA
BRANCH  27  28
ATOM     28  C23 UNL     1     -80.311  55.050  19.650  0.00  0.00    +0.206 C 
BRANCH  28  29
ATOM     29  C24 UNL     1     -81.250  55.868  18.761  0.00  0.00    +0.051 C 
BRANCH  29  30
ATOM     30  C25 UNL     1     -82.720  55.549  19.061  0.00  0.00    +0.051 C 
BRANCH  30  31
ATOM     31  C26 UNL     1     -83.658  56.317  18.132  0.00  0.00    +0.206 C 
BRANCH  31  32
ATOM     32  O4  UNL     1     -85.011  56.002  18.460  0.00  0.00    -0.475 OA
BRANCH  32  33
ATOM     33  C27 UNL     1     -85.529  54.704  18.556  0.00  0.00    +0.139 A 
ATOM     34  C28 UNL     1     -84.673  53.682  18.972  0.00  0.00    +0.037 A 
ATOM     35  C29 UNL     1     -85.124  52.364  19.054  0.00  0.00    +0.006 A 
ATOM     36  C30 UNL     1     -86.457  52.042  18.736  0.00  0.00    +0.040 A 
ATOM     37  C32 UNL     1     -87.327  53.078  18.342  0.00  0.00    +0.006 A 
ATOM     38  C33 UNL     1     -86.866  54.395  18.246  0.00  0.00    +0.037 A 
BRANCH  36  39
ATOM     39  C31 UNL     1     -86.934  50.636  18.810  0.00  0.00    +0.208 A 
ATOM     40  N3  UNL     1     -86.716  49.686  17.875  0.00  0.00    -0.106 NA
ATOM     41  N4  UNL     1     -87.284  48.587  18.341  0.00  0.00    -0.021 NA
ATOM     42  N5  UNL     1     -87.838  48.838  19.515  0.00  0.00    -0.021 NA
ATOM     43  N6  UNL     1     -87.635  50.102  19.836  0.00  0.00    -0.106 NA
ENDBRANCH  36  39
ENDBRANCH  32  33
ENDBRANCH  31  32
ENDBRANCH  30  31
ENDBRANCH  29  30
ENDBRANCH  28  29
ENDBRANCH  27  28
ENDBRANCH   6  27
TORSDOF 11
ENDMDL
MODEL 6
REMARK VINA RESULT:      -5.6      2.554      5.059
REMARK  Name = ./data/4wxx_site_bc02/pdb/l1c0.pdb
REMARK  11 active torsions:
REMARK  status: ('A' for Active; 'I' for Inactive)
REMARK    1  A    between atoms: O1_2  and  C2_3
REMARK    2  A    between atoms: C5_6  and  C6_7
REMARK    3  A    between atoms: N2_9  and  C7_10
REMARK    4  A    between atoms: C22_26  and  O3_27
REMARK    5  A    between atoms: O3_27  and  C23_28
REMARK    6  A    between atoms: C23_28  and  C24_29
REMARK    7  A    between atoms: C24_29  and  C25_30
REMARK    8  A    between atoms: C25_30  and  C26_31
REMARK    9  A    between atoms: C26_31  and  O4_32
REMARK   10  A    between atoms: O4_32  and  C27_33
REMARK   11  A    between atoms: C30_36  and  C31_37
REMARK                            x       y       z     vdW  Elec       q    Type
REMARK                         _______ _______ _______ _____ _____    ______ ____
ROOT
ATOM      1  C2  UNL     1     -85.583  56.350  19.346  0.00  0.00    +0.172 A 
ATOM      2  C3  UNL     1     -84.500  57.230  19.504  0.00  0.00    +0.040 A 
ATOM      3  C4  UNL     1     -83.921  57.419  20.759  0.00  0.00    +0.005 A 
ATOM      4  C5  UNL     1     -84.400  56.732  21.888  0.00  0.00    +0.018 A 
ATOM      5  C21 UNL     1     -85.477  55.840  21.721  0.00  0.00    +0.041 A 
ATOM      6  C22 UNL     1     -86.085  55.662  20.460  0.00  0.00    +0.172 A 
ENDROOT
BRANCH   4   7
ATOM      7  C6  UNL     1     -83.760  56.955  23.221  0.00  0.00    +0.079 C 
ATOM      8  N1  UNL     1     -84.521  57.220  24.241  0.00  0.00    -0.172 NA
ATOM      9  N2  UNL     1     -84.044  57.450  25.548  0.00  0.00    -0.222 N 
ATOM     10  C14 UNL     1     -82.808  57.146  25.877  0.00  0.00    +0.253 C 
ATOM     11  O2  UNL     1     -82.390  57.290  27.204  0.00  0.00    -0.271 OA
ATOM     12  C15 UNL     1     -81.862  56.557  24.838  0.00  0.00    +0.091 C 
ATOM     13  C16 UNL     1     -80.385  56.933  25.077  0.00  0.00    +0.035 C 
ATOM     14  C17 UNL     1     -80.226  58.420  24.986  0.00  0.00    -0.030 C 
ATOM     15  C18 UNL     1     -80.869  59.101  24.030  0.00  0.00    -0.030 C 
ATOM     16  C19 UNL     1     -81.697  58.398  22.978  0.00  0.00    +0.032 C 
ATOM     17  C20 UNL     1     -82.257  56.998  23.400  0.00  0.00    +0.056 C 
BRANCH   9  18
ATOM     18  C7  UNL     1     -85.024  57.970  26.526  0.00  0.00    +0.108 C 
ATOM     19  C8  UNL     1     -85.504  59.393  26.132  0.00  0.00    +0.024 C 
ATOM     20  C9  UNL     1     -85.852  60.257  27.355  0.00  0.00    +0.002 C 
ATOM     21  C10 UNL     1     -87.216  59.927  27.970  0.00  0.00    +0.000 C 
ATOM     22  C11 UNL     1     -87.332  58.479  28.462  0.00  0.00    +0.000 C 
ATOM     23  C12 UNL     1     -87.483  57.481  27.302  0.00  0.00    +0.002 C 
ATOM     24  C13 UNL     1     -86.148  56.928  26.777  0.00  0.00    +0.024 C 
ENDBRANCH   9  18
ENDBRANCH   4   7
BRANCH   1  26
ATOM     25  C1  UNL     1     -85.481  55.894  16.889  0.00  0.00    +0.253 C 
ATOM     26  O1  UNL     1     -86.191  56.132  18.100  0.00  0.00    -0.468 OA
ENDBRANCH   1  26
BRANCH   6  27
ATOM     27  O3  UNL     1     -87.186  54.810  20.267  0.00  0.00    -0.472 OA
BRANCH  27  28
ATOM     28  C23 UNL     1     -87.124  53.450  19.841  0.00  0.00    +0.206 C 
BRANCH  28  29
ATOM     29  C24 UNL     1     -87.840  52.538  20.842  0.00  0.00    +0.051 C 
BRANCH  29  30
ATOM     30  C25 UNL     1     -87.089  51.214  21.025  0.00  0.00    +0.051 C 
BRANCH  30  31
ATOM     31  C26 UNL     1     -85.841  51.154  20.146  0.00  0.00    +0.206 C 
BRANCH  31  32
ATOM     32  O4  UNL     1     -84.721  51.650  20.878  0.00  0.00    -0.475 OA
BRANCH  32  33
ATOM     33  C27 UNL     1     -83.758  52.531  20.368  0.00  0.00    +0.139 A 
ATOM     34  C28 UNL     1     -83.673  52.683  18.983  0.00  0.00    +0.037 A 
ATOM     35  C29 UNL     1     -82.711  53.521  18.416  0.00  0.00    +0.006 A 
ATOM     36  C30 UNL     1     -81.820  54.244  19.232  0.00  0.00    +0.040 A 
ATOM     37  C32 UNL     1     -81.924  54.109  20.631  0.00  0.00    +0.006 A 
ATOM     38  C33 UNL     1     -82.880  53.256  21.194  0.00  0.00    +0.037 A 
BRANCH  36  39
ATOM     39  C31 UNL     1     -80.787  55.125  18.629  0.00  0.00    +0.208 A 
ATOM     40  N3  UNL     1     -79.473  54.833  18.526  0.00  0.00    -0.106 NA
ATOM     41  N4  UNL     1     -78.922  55.866  17.912  0.00  0.00    -0.021 NA
ATOM     42  N5  UNL     1     -79.850  56.769  17.645  0.00  0.00    -0.021 NA
ATOM     43  N6  UNL     1     -81.021  56.337  18.075  0.00  0.00    -0.106 NA
ENDBRANCH  36  39
ENDBRANCH  32  33
ENDBRANCH  31  32
ENDBRANCH  30  31
ENDBRANCH  29  30
ENDBRANCH  28  29
ENDBRANCH  27  28
ENDBRANCH   6  27
TORSDOF 11
ENDMDL
MODEL 7
REMARK VINA RESULT:      -4.6      3.403      6.740
REMARK  Name = ./data/4wxx_site_bc02/pdb/l1c0.pdb
REMARK  11 active torsions:
REMARK  status: ('A' for Active; 'I' for Inactive)
REMARK    1  A    between atoms: O1_2  and  C2_3
REMARK    2  A    between atoms: C5_6  and  C6_7
REMARK    3  A    between atoms: N2_9  and  C7_10
REMARK    4  A    between atoms: C22_26  and  O3_27
REMARK    5  A    between atoms: O3_27  and  C23_28
REMARK    6  A    between atoms: C23_28  and  C24_29
REMARK    7  A    between atoms: C24_29  and  C25_30
REMARK    8  A    between atoms: C25_30  and  C26_31
REMARK    9  A    between atoms: C26_31  and  O4_32
REMARK   10  A    between atoms: O4_32  and  C27_33
REMARK   11  A    between atoms: C30_36  and  C31_37
REMARK                            x       y       z     vdW  Elec       q    Type
REMARK                         _______ _______ _______ _____ _____    ______ ____
ROOT
ATOM      1  C2  UNL     1     -79.012  56.396  22.919  0.00  0.00    +0.172 A 
ATOM      2  C3  UNL     1     -79.366  56.976  24.148  0.00  0.00    +0.040 A 
ATOM      3  C4  UNL     1     -80.693  57.308  24.417  0.00  0.00    +0.005 A 
ATOM      4  C5  UNL     1     -81.705  57.066  23.471  0.00  0.00    +0.018 A 
ATOM      5  C21 UNL     1     -81.347  56.472  22.246  0.00  0.00    +0.041 A 
ATOM      6  C22 UNL     1     -80.003  56.156  21.956  0.00  0.00    +0.172 A 
ENDROOT
BRANCH   4   7
ATOM      7  C6  UNL     1     -83.120  57.433  23.786  0.00  0.00    +0.079 C 
ATOM      8  N1  UNL     1     -83.940  57.656  22.802  0.00  0.00    -0.172 NA
ATOM      9  N2  UNL     1     -85.296  58.009  22.964  0.00  0.00    -0.222 N 
ATOM     10  C14 UNL     1     -85.893  57.875  24.127  0.00  0.00    +0.253 C 
ATOM     11  O2  UNL     1     -87.262  58.137  24.236  0.00  0.00    -0.271 OA
ATOM     12  C15 UNL     1     -85.117  57.353  25.330  0.00  0.00    +0.091 C 
ATOM     13  C16 UNL     1     -85.624  57.916  26.673  0.00  0.00    +0.035 C 
ATOM     14  C17 UNL     1     -85.456  59.405  26.687  0.00  0.00    -0.030 C 
ATOM     15  C18 UNL     1     -84.339  59.953  26.191  0.00  0.00    -0.030 C 
ATOM     16  C19 UNL     1     -83.196  59.102  25.686  0.00  0.00    +0.032 C 
ATOM     17  C20 UNL     1     -83.599  57.668  25.204  0.00  0.00    +0.056 C 
BRANCH   9  18
ATOM     18  C7  UNL     1     -86.010  58.456  21.748  0.00  0.00    +0.108 C 
ATOM     19  C8  UNL     1     -86.155  60.002  21.723  0.00  0.00    +0.024 C 
ATOM     20  C9  UNL     1     -87.438  60.462  21.012  0.00  0.00    +0.002 C 
ATOM     21  C10 UNL     1     -87.344  60.408  19.484  0.00  0.00    +0.000 C 
ATOM     22  C11 UNL     1     -87.070  59.002  18.935  0.00  0.00    +0.000 C 
ATOM     23  C12 UNL     1     -85.612  58.566  19.157  0.00  0.00    +0.002 C 
ATOM     24  C13 UNL     1     -85.378  57.820  20.480  0.00  0.00    +0.024 C 
ENDBRANCH   9  18
ENDBRANCH   4   7
BRANCH   1  26
ATOM     25  C1  UNL     1     -77.278  54.757  22.171  0.00  0.00    +0.253 C 
ATOM     26  O1  UNL     1     -77.687  56.047  22.613  0.00  0.00    -0.468 OA
ENDBRANCH   1  26
BRANCH   6  27
ATOM     27  O3  UNL     1     -79.606  55.599  20.729  0.00  0.00    -0.472 OA
BRANCH  27  28
ATOM     28  C23 UNL     1     -80.439  54.847  19.846  0.00  0.00    +0.206 C 
BRANCH  28  29
ATOM     29  C24 UNL     1     -81.611  55.699  19.353  0.00  0.00    +0.051 C 
BRANCH  29  30
ATOM     30  C25 UNL     1     -82.915  54.892  19.330  0.00  0.00    +0.051 C 
BRANCH  30  31
ATOM     31  C26 UNL     1     -83.726  55.179  18.067  0.00  0.00    +0.206 C 
BRANCH  31  32
ATOM     32  O4  UNL     1     -85.062  54.709  18.246  0.00  0.00    -0.475 OA
BRANCH  32  33
ATOM     33  C27 UNL     1     -85.451  53.746  19.186  0.00  0.00    +0.139 A 
ATOM     34  C28 UNL     1     -86.817  53.529  19.379  0.00  0.00    +0.037 A 
ATOM     35  C29 UNL     1     -87.265  52.607  20.326  0.00  0.00    +0.006 A 
ATOM     36  C30 UNL     1     -86.347  51.863  21.092  0.00  0.00    +0.040 A 
ATOM     37  C32 UNL     1     -84.969  52.064  20.877  0.00  0.00    +0.006 A 
ATOM     38  C33 UNL     1     -84.525  53.001  19.938  0.00  0.00    +0.037 A 
BRANCH  36  39
ATOM     39  C31 UNL     1     -86.824  50.891  22.109  0.00  0.00    +0.208 A 
ATOM     40  N3  UNL     1     -87.686  49.876  21.879  0.00  0.00    -0.106 NA
ATOM     41  N4  UNL     1     -87.821  49.250  23.035  0.00  0.00    -0.021 NA
ATOM     42  N5  UNL     1     -87.079  49.847  23.951  0.00  0.00    -0.021 NA
ATOM     43  N6  UNL     1     -86.445  50.869  23.407  0.00  0.00    -0.106 NA
ENDBRANCH  36  39
ENDBRANCH  32  33
ENDBRANCH  31  32
ENDBRANCH  30  31
ENDBRANCH  29  30
ENDBRANCH  28  29
ENDBRANCH  27  28
ENDBRANCH   6  27
TORSDOF 11
ENDMDL
