MODEL 1
REMARK VINA RESULT:      -7.3      0.000      0.000
REMARK  Name = ./data/4wxx_site_bc02/pdb/l1c0.pdb
REMARK  11 active torsions:
REMARK  status: ('A' for Active; 'I' for Inactive)
REMARK    1  A    between atoms: O1_2  and  C2_3
REMARK    2  A    between atoms: C5_6  and  C6_7
REMARK    3  A    between atoms: N2_9  and  C7_10
REMARK    4  A    between atoms: C22_26  and  O3_27
REMARK    5  A    between atoms: O3_27  and  C23_28
REMARK    6  A    between atoms: C23_28  and  C24_29
REMARK    7  A    between atoms: C24_29  and  C25_30
REMARK    8  A    between atoms: C25_30  and  C26_31
REMARK    9  A    between atoms: C26_31  and  O4_32
REMARK   10  A    between atoms: O4_32  and  C27_33
REMARK   11  A    between atoms: C30_36  and  C31_37
REMARK                            x       y       z     vdW  Elec       q    Type
REMARK                         _______ _______ _______ _____ _____    ______ ____
ROOT
ATOM      1  C2  UNL     1     -33.272  69.755 -22.625  0.00  0.00    +0.172 A 
ATOM      2  C3  UNL     1     -33.069  68.803 -21.613  0.00  0.00    +0.040 A 
ATOM      3  C4  UNL     1     -32.631  67.517 -21.930  0.00  0.00    +0.005 A 
ATOM      4  C5  UNL     1     -32.377  67.147 -23.263  0.00  0.00    +0.018 A 
ATOM      5  C21 UNL     1     -32.569  68.110 -24.272  0.00  0.00    +0.041 A 
ATOM      6  C22 UNL     1     -33.036  69.405 -23.962  0.00  0.00    +0.172 A 
ENDROOT
BRANCH   4   7
ATOM      7  C6  UNL     1     -31.909  65.761 -23.573  0.00  0.00    +0.079 C 
ATOM      8  N1  UNL     1     -32.567  65.063 -24.452  0.00  0.00    -0.172 NA
ATOM      9  N2  UNL     1     -32.230  63.748 -24.833  0.00  0.00    -0.222 N 
ATOM     10  C14 UNL     1     -31.062  63.234 -24.519  0.00  0.00    +0.253 C 
ATOM     11  O2  UNL     1     -30.713  61.966 -24.995  0.00  0.00    -0.271 OA
ATOM     12  C15 UNL     1     -30.057  64.050 -23.715  0.00  0.00    +0.091 C 
ATOM     13  C16 UNL     1     -29.146  63.185 -22.819  0.00  0.00    +0.035 C 
ATOM     14  C17 UNL     1     -29.982  62.452 -21.815  0.00  0.00    -0.030 C 
ATOM     15  C18 UNL     1     -30.996  63.081 -21.207  0.00  0.00    -0.030 C 
ATOM     16  C19 UNL     1     -31.276  64.547 -21.447  0.00  0.00    +0.032 C 
ATOM     17  C20 UNL     1     -30.771  65.104 -22.821  0.00  0.00    +0.056 C 
BRANCH   9  18
ATOM     18  C7  UNL     1     -33.222  63.027 -25.659  0.00  0.00    +0.108 C 
ATOM     19  C8  UNL     1     -34.669  63.450 -25.289  0.00  0.00    +0.024 C 
ATOM     20  C9  UNL     1     -35.684  62.311 -25.481  0.00  0.00    +0.002 C 
ATOM     21  C10 UNL     1     -36.083  62.086 -26.942  0.00  0.00    +0.000 C 
ATOM     22  C11 UNL     1     -34.902  61.721 -27.851  0.00  0.00    +0.000 C 
ATOM     23  C12 UNL     1     -34.011  62.935 -28.160  0.00  0.00    +0.002 C 
ATOM     24  C13 UNL     1     -32.856  63.131 -27.165  0.00  0.00    +0.024 C 
ENDBRANCH   9  18
ENDBRANCH   4   7
BRANCH   1  26
ATOM     25  C1  UNL     1     -35.007  71.382 -21.854  0.00  0.00    +0.253 C 
ATOM     26  O1  UNL     1     -33.711  71.058 -22.345  0.00  0.00    -0.468 OA
ENDBRANCH   1  26
BRANCH   6  27
ATOM     27  O3  UNL     1     -33.275  70.377 -24.949  0.00  0.00    -0.472 OA
BRANCH  27  28
ATOM     28  C23 UNL     1     -34.091  70.206 -26.108  0.00  0.00    +0.206 C 
BRANCH  28  29
ATOM     29  C24 UNL     1     -35.560  70.038 -25.712  0.00  0.00    +0.051 C 
BRANCH  29  30
ATOM     30  C25 UNL     1     -35.974  68.561 -25.722  0.00  0.00    +0.051 C 
BRANCH  30  31
ATOM     31  C26 UNL     1     -36.436  68.102 -24.340  0.00  0.00    +0.206 C 
BRANCH  31  32
ATOM     32  O4  UNL     1     -35.904  66.806 -24.070  0.00  0.00    -0.475 OA
BRANCH  32  33
ATOM     33  C27 UNL     1     -36.485  65.868 -23.206  0.00  0.00    +0.139 A 
ATOM     34  C28 UNL     1     -35.743  65.441 -22.102  0.00  0.00    +0.037 A 
ATOM     35  C29 UNL     1     -36.255  64.483 -21.226  0.00  0.00    +0.006 A 
ATOM     36  C30 UNL     1     -37.540  63.943 -21.428  0.00  0.00    +0.040 A 
ATOM     37  C32 UNL     1     -38.298  64.394 -22.527  0.00  0.00    +0.006 A 
ATOM     38  C33 UNL     1     -37.773  65.342 -23.411  0.00  0.00    +0.037 A 
BRANCH  36  39
ATOM     39  C31 UNL     1     -38.081  62.913 -20.503  0.00  0.00    +0.208 A 
ATOM     40  N3  UNL     1     -38.011  61.578 -20.692  0.00  0.00    -0.106 NA
ATOM     41  N4  UNL     1     -38.586  61.034 -19.633  0.00  0.00    -0.021 NA
ATOM     42  N5  UNL     1     -39.002  61.987 -18.817  0.00  0.00    -0.021 NA
ATOM     43  N6  UNL     1     -38.700  63.167 -19.327  0.00  0.00    -0.106 NA
ENDBRANCH  36  39
ENDBRANCH  32  33
ENDBRANCH  31  32
ENDBRANCH  30  31
ENDBRANCH  29  30
ENDBRANCH  28  29
ENDBRANCH  27  28
ENDBRANCH   6  27
TORSDOF 11
ENDMDL
MODEL 2
REMARK VINA RESULT:      -7.2      2.151      6.564
REMARK  Name = ./data/4wxx_site_bc02/pdb/l1c0.pdb
REMARK  11 active torsions:
REMARK  status: ('A' for Active; 'I' for Inactive)
REMARK    1  A    between atoms: O1_2  and  C2_3
REMARK    2  A    between atoms: C5_6  and  C6_7
REMARK    3  A    between atoms: N2_9  and  C7_10
REMARK    4  A    between atoms: C22_26  and  O3_27
REMARK    5  A    between atoms: O3_27  and  C23_28
REMARK    6  A    between atoms: C23_28  and  C24_29
REMARK    7  A    between atoms: C24_29  and  C25_30
REMARK    8  A    between atoms: C25_30  and  C26_31
REMARK    9  A    between atoms: C26_31  and  O4_32
REMARK   10  A    between atoms: O4_32  and  C27_33
REMARK   11  A    between atoms: C30_36  and  C31_37
REMARK                            x       y       z     vdW  Elec       q    Type
REMARK                         _______ _______ _______ _____ _____    ______ ____
ROOT
ATOM      1  C2  UNL     1     -31.741  63.649 -21.853  0.00  0.00    +0.172 A 
ATOM      2  C3  UNL     1     -32.283  64.760 -21.188  0.00  0.00    +0.040 A 
ATOM      3  C4  UNL     1     -32.527  65.948 -21.879  0.00  0.00    +0.005 A 
ATOM      4  C5  UNL     1     -32.244  66.056 -23.252  0.00  0.00    +0.018 A 
ATOM      5  C21 UNL     1     -31.714  64.934 -23.917  0.00  0.00    +0.041 A 
ATOM      6  C22 UNL     1     -31.441  63.738 -23.220  0.00  0.00    +0.172 A 
ENDROOT
BRANCH   4   7
ATOM      7  C6  UNL     1     -32.515  67.341 -23.967  0.00  0.00    +0.079 C 
ATOM      8  N1  UNL     1     -33.275  68.227 -23.392  0.00  0.00    -0.172 NA
ATOM      9  N2  UNL     1     -33.606  69.475 -23.959  0.00  0.00    -0.222 N 
ATOM     10  C14 UNL     1     -32.948  69.939 -24.997  0.00  0.00    +0.253 C 
ATOM     11  O2  UNL     1     -33.229  71.223 -25.477  0.00  0.00    -0.271 OA
ATOM     12  C15 UNL     1     -31.824  69.121 -25.620  0.00  0.00    +0.091 C 
ATOM     13  C16 UNL     1     -31.664  69.359 -27.135  0.00  0.00    +0.035 C 
ATOM     14  C17 UNL     1     -32.918  68.946 -27.843  0.00  0.00    -0.030 C 
ATOM     15  C18 UNL     1     -33.548  67.822 -27.477  0.00  0.00    -0.030 C 
ATOM     16  C19 UNL     1     -32.982  66.907 -26.415  0.00  0.00    +0.032 C 
ATOM     17  C20 UNL     1     -32.033  67.599 -25.379  0.00  0.00    +0.056 C 
BRANCH   9  18
ATOM     18  C7  UNL     1     -34.667  70.247 -23.277  0.00  0.00    +0.108 C 
ATOM     19  C8  UNL     1     -35.720  69.303 -22.636  0.00  0.00    +0.024 C 
ATOM     20  C9  UNL     1     -37.128  69.920 -22.612  0.00  0.00    +0.002 C 
ATOM     21  C10 UNL     1     -37.324  70.956 -21.500  0.00  0.00    +0.000 C 
ATOM     22  C11 UNL     1     -36.369  72.152 -21.601  0.00  0.00    +0.000 C 
ATOM     23  C12 UNL     1     -34.938  71.790 -21.172  0.00  0.00    +0.002 C 
ATOM     24  C13 UNL     1     -34.044  71.304 -22.324  0.00  0.00    +0.024 C 
ENDBRANCH   9  18
ENDBRANCH   4   7
BRANCH   1  26
ATOM     25  C1  UNL     1     -30.437  62.245 -20.246  0.00  0.00    +0.253 C 
ATOM     26  O1  UNL     1     -31.483  62.437 -21.192  0.00  0.00    -0.468 OA
ENDBRANCH   1  26
BRANCH   6  27
ATOM     27  O3  UNL     1     -30.875  62.613 -23.844  0.00  0.00    -0.472 OA
BRANCH  27  28
ATOM     28  C23 UNL     1     -30.585  62.490 -25.236  0.00  0.00    +0.206 C 
BRANCH  28  29
ATOM     29  C24 UNL     1     -31.800  61.952 -25.995  0.00  0.00    +0.051 C 
BRANCH  29  30
ATOM     30  C25 UNL     1     -32.543  63.077 -26.726  0.00  0.00    +0.051 C 
BRANCH  30  31
ATOM     31  C26 UNL     1     -34.055  62.855 -26.701  0.00  0.00    +0.206 C 
BRANCH  31  32
ATOM     32  O4  UNL     1     -34.694  64.006 -26.151  0.00  0.00    -0.475 OA
BRANCH  32  33
ATOM     33  C27 UNL     1     -35.123  64.124 -24.822  0.00  0.00    +0.139 A 
ATOM     34  C28 UNL     1     -35.659  65.346 -24.409  0.00  0.00    +0.037 A 
ATOM     35  C29 UNL     1     -36.071  65.533 -23.089  0.00  0.00    +0.006 A 
ATOM     36  C30 UNL     1     -35.972  64.486 -22.152  0.00  0.00    +0.040 A 
ATOM     37  C32 UNL     1     -35.455  63.245 -22.577  0.00  0.00    +0.006 A 
ATOM     38  C33 UNL     1     -35.029  63.068 -23.898  0.00  0.00    +0.037 A 
BRANCH  36  39
ATOM     39  C31 UNL     1     -36.399  64.689 -20.743  0.00  0.00    +0.208 A 
ATOM     40  N3  UNL     1     -35.594  64.600 -19.662  0.00  0.00    -0.106 NA
ATOM     41  N4  UNL     1     -36.361  64.872 -18.620  0.00  0.00    -0.021 NA
ATOM     42  N5  UNL     1     -37.594  65.117 -19.030  0.00  0.00    -0.021 NA
ATOM     43  N6  UNL     1     -37.650  65.013 -20.345  0.00  0.00    -0.106 NA
ENDBRANCH  36  39
ENDBRANCH  32  33
ENDBRANCH  31  32
ENDBRANCH  30  31
ENDBRANCH  29  30
ENDBRANCH  28  29
ENDBRANCH  27  28
ENDBRANCH   6  27
TORSDOF 11
ENDMDL
MODEL 3
REMARK VINA RESULT:      -6.7      3.242      5.733
REMARK  Name = ./data/4wxx_site_bc02/pdb/l1c0.pdb
REMARK  11 active torsions:
REMARK  status: ('A' for Active; 'I' for Inactive)
REMARK    1  A    between atoms: O1_2  and  C2_3
REMARK    2  A    between atoms: C5_6  and  C6_7
REMARK    3  A    between atoms: N2_9  and  C7_10
REMARK    4  A    between atoms: C22_26  and  O3_27
REMARK    5  A    between atoms: O3_27  and  C23_28
REMARK    6  A    between atoms: C23_28  and  C24_29
REMARK    7  A    between atoms: C24_29  and  C25_30
REMARK    8  A    between atoms: C25_30  and  C26_31
REMARK    9  A    between atoms: C26_31  and  O4_32
REMARK   10  A    between atoms: O4_32  and  C27_33
REMARK   11  A    between atoms: C30_36  and  C31_37
REMARK                            x       y       z     vdW  Elec       q    Type
REMARK                         _______ _______ _______ _____ _____    ______ ____
ROOT
ATOM      1  C2  UNL     1     -37.485  63.135 -20.165  0.00  0.00    +0.172 A 
ATOM      2  C3  UNL     1     -36.616  64.107 -19.642  0.00  0.00    +0.040 A 
ATOM      3  C4  UNL     1     -35.409  64.392 -20.280  0.00  0.00    +0.005 A 
ATOM      4  C5  UNL     1     -35.039  63.723 -21.460  0.00  0.00    +0.018 A 
ATOM      5  C21 UNL     1     -35.920  62.760 -21.988  0.00  0.00    +0.041 A 
ATOM      6  C22 UNL     1     -37.131  62.447 -21.334  0.00  0.00    +0.172 A 
ENDROOT
BRANCH   4   7
ATOM      7  C6  UNL     1     -33.738  64.050 -22.122  0.00  0.00    +0.079 C 
ATOM      8  N1  UNL     1     -33.710  64.170 -23.416  0.00  0.00    -0.172 NA
ATOM      9  N2  UNL     1     -32.551  64.474 -24.160  0.00  0.00    -0.222 N 
ATOM     10  C14 UNL     1     -31.468  64.922 -23.565  0.00  0.00    +0.253 C 
ATOM     11  O2  UNL     1     -30.367  65.312 -24.335  0.00  0.00    -0.271 OA
ATOM     12  C15 UNL     1     -31.443  65.100 -22.052  0.00  0.00    +0.091 C 
ATOM     13  C16 UNL     1     -30.043  64.895 -21.438  0.00  0.00    +0.035 C 
ATOM     14  C17 UNL     1     -29.583  63.493 -21.698  0.00  0.00    -0.030 C 
ATOM     15  C18 UNL     1     -30.445  62.476 -21.574  0.00  0.00    -0.030 C 
ATOM     16  C19 UNL     1     -31.863  62.694 -21.098  0.00  0.00    +0.032 C 
ATOM     17  C20 UNL     1     -32.436  64.129 -21.352  0.00  0.00    +0.056 C 
BRANCH   9  18
ATOM     18  C7  UNL     1     -32.655  64.335 -25.628  0.00  0.00    +0.108 C 
ATOM     19  C8  UNL     1     -33.656  63.213 -26.013  0.00  0.00    +0.024 C 
ATOM     20  C9  UNL     1     -33.277  62.509 -27.326  0.00  0.00    +0.002 C 
ATOM     21  C10 UNL     1     -33.638  63.313 -28.579  0.00  0.00    +0.000 C 
ATOM     22  C11 UNL     1     -32.948  64.681 -28.650  0.00  0.00    +0.000 C 
ATOM     23  C12 UNL     1     -33.570  65.696 -27.677  0.00  0.00    +0.002 C 
ATOM     24  C13 UNL     1     -32.909  65.718 -26.289  0.00  0.00    +0.024 C 
ENDBRANCH   9  18
ENDBRANCH   4   7
BRANCH   1  26
ATOM     25  C1  UNL     1     -38.867  61.845 -18.528  0.00  0.00    +0.253 C 
ATOM     26  O1  UNL     1     -38.708  62.821 -19.552  0.00  0.00    -0.468 OA
ENDBRANCH   1  26
BRANCH   6  27
ATOM     27  O3  UNL     1     -38.013  61.464 -21.813  0.00  0.00    -0.472 OA
BRANCH  27  28
ATOM     28  C23 UNL     1     -37.807  60.645 -22.964  0.00  0.00    +0.206 C 
BRANCH  28  29
ATOM     29  C24 UNL     1     -39.081  60.572 -23.809  0.00  0.00    +0.051 C 
BRANCH  29  30
ATOM     30  C25 UNL     1     -38.933  61.370 -25.110  0.00  0.00    +0.051 C 
BRANCH  30  31
ATOM     31  C26 UNL     1     -37.535  61.972 -25.239  0.00  0.00    +0.206 C 
BRANCH  31  32
ATOM     32  O4  UNL     1     -37.629  63.263 -25.840  0.00  0.00    -0.475 OA
BRANCH  32  33
ATOM     33  C27 UNL     1     -37.390  64.473 -25.176  0.00  0.00    +0.139 A 
ATOM     34  C28 UNL     1     -38.138  64.756 -24.031  0.00  0.00    +0.037 A 
ATOM     35  C29 UNL     1     -37.967  65.961 -23.348  0.00  0.00    +0.006 A 
ATOM     36  C30 UNL     1     -37.022  66.907 -23.789  0.00  0.00    +0.040 A 
ATOM     37  C32 UNL     1     -36.249  66.609 -24.929  0.00  0.00    +0.006 A 
ATOM     38  C33 UNL     1     -36.435  65.407 -25.620  0.00  0.00    +0.037 A 
BRANCH  36  39
ATOM     39  C31 UNL     1     -36.850  68.196 -23.070  0.00  0.00    +0.208 A 
ATOM     40  N3  UNL     1     -35.883  69.106 -23.316  0.00  0.00    -0.106 NA
ATOM     41  N4  UNL     1     -36.105  70.103 -22.477  0.00  0.00    -0.021 NA
ATOM     42  N5  UNL     1     -37.163  69.828 -21.734  0.00  0.00    -0.021 NA
ATOM     43  N6  UNL     1     -37.651  68.651 -22.080  0.00  0.00    -0.106 NA
ENDBRANCH  36  39
ENDBRANCH  32  33
ENDBRANCH  31  32
ENDBRANCH  30  31
ENDBRANCH  29  30
ENDBRANCH  28  29
ENDBRANCH  27  28
ENDBRANCH   6  27
TORSDOF 11
ENDMDL
MODEL 4
REMARK VINA RESULT:      -6.4      2.171      6.149
REMARK  Name = ./data/4wxx_site_bc02/pdb/l1c0.pdb
REMARK  11 active torsions:
REMARK  status: ('A' for Active; 'I' for Inactive)
REMARK    1  A    between atoms: O1_2  and  C2_3
REMARK    2  A    between atoms: C5_6  and  C6_7
REMARK    3  A    between atoms: N2_9  and  C7_10
REMARK    4  A    between atoms: C22_26  and  O3_27
REMARK    5  A    between atoms: O3_27  and  C23_28
REMARK    6  A    between atoms: C23_28  and  C24_29
REMARK    7  A    between atoms: C24_29  and  C25_30
REMARK    8  A    between atoms: C25_30  and  C26_31
REMARK    9  A    between atoms: C26_31  and  O4_32
REMARK   10  A    between atoms: O4_32  and  C27_33
REMARK   11  A    between atoms: C30_36  and  C31_37
REMARK                            x       y       z     vdW  Elec       q    Type
REMARK                         _______ _______ _______ _____ _____    ______ ____
ROOT
ATOM      1  C2  UNL     1     -31.183  64.747 -24.155  0.00  0.00    +0.172 A 
ATOM      2  C3  UNL     1     -31.144  65.363 -22.893  0.00  0.00    +0.040 A 
ATOM      3  C4  UNL     1     -32.034  66.391 -22.581  0.00  0.00    +0.005 A 
ATOM      4  C5  UNL     1     -32.991  66.828 -23.514  0.00  0.00    +0.018 A 
ATOM      5  C21 UNL     1     -33.034  66.197 -24.773  0.00  0.00    +0.041 A 
ATOM      6  C22 UNL     1     -32.121  65.174 -25.105  0.00  0.00    +0.172 A 
ENDROOT
BRANCH   4   7
ATOM      7  C6  UNL     1     -33.932  67.932 -23.153  0.00  0.00    +0.079 C 
ATOM      8  N1  UNL     1     -35.200  67.774 -23.391  0.00  0.00    -0.172 NA
ATOM      9  N2  UNL     1     -36.188  68.736 -23.098  0.00  0.00    -0.222 N 
ATOM     10  C14 UNL     1     -35.922  69.757 -22.314  0.00  0.00    +0.253 C 
ATOM     11  O2  UNL     1     -36.947  70.642 -21.959  0.00  0.00    -0.271 OA
ATOM     12  C15 UNL     1     -34.528  69.928 -21.725  0.00  0.00    +0.091 C 
ATOM     13  C16 UNL     1     -34.139  71.403 -21.495  0.00  0.00    +0.035 C 
ATOM     14  C17 UNL     1     -34.126  72.127 -22.806  0.00  0.00    -0.030 C 
ATOM     15  C18 UNL     1     -33.607  71.534 -23.889  0.00  0.00    -0.030 C 
ATOM     16  C19 UNL     1     -32.956  70.172 -23.809  0.00  0.00    +0.032 C 
ATOM     17  C20 UNL     1     -33.448  69.268 -22.629  0.00  0.00    +0.056 C 
BRANCH   9  18
ATOM     18  C7  UNL     1     -37.536  68.487 -23.653  0.00  0.00    +0.108 C 
ATOM     19  C8  UNL     1     -37.760  69.295 -24.960  0.00  0.00    +0.024 C 
ATOM     20  C9  UNL     1     -39.228  69.705 -25.156  0.00  0.00    +0.002 C 
ATOM     21  C10 UNL     1     -40.119  68.566 -25.663  0.00  0.00    +0.000 C 
ATOM     22  C11 UNL     1     -40.168  67.358 -24.719  0.00  0.00    +0.000 C 
ATOM     23  C12 UNL     1     -38.875  66.527 -24.772  0.00  0.00    +0.002 C 
ATOM     24  C13 UNL     1     -37.811  66.961 -23.752  0.00  0.00    +0.024 C 
ENDBRANCH   9  18
ENDBRANCH   4   7
BRANCH   1  26
ATOM     25  C1  UNL     1     -29.429  63.055 -23.592  0.00  0.00    +0.253 C 
ATOM     26  O1  UNL     1     -30.305  63.709 -24.505  0.00  0.00    -0.468 OA
ENDBRANCH   1  26
BRANCH   6  27
ATOM     27  O3  UNL     1     -32.111  64.552 -26.365  0.00  0.00    -0.472 OA
BRANCH  27  28
ATOM     28  C23 UNL     1     -32.706  65.068 -27.555  0.00  0.00    +0.206 C 
BRANCH  28  29
ATOM     29  C24 UNL     1     -34.029  64.355 -27.849  0.00  0.00    +0.051 C 
BRANCH  29  30
ATOM     30  C25 UNL     1     -33.834  62.838 -27.950  0.00  0.00    +0.051 C 
BRANCH  30  31
ATOM     31  C26 UNL     1     -34.538  62.108 -26.807  0.00  0.00    +0.206 C 
BRANCH  31  32
ATOM     32  O4  UNL     1     -35.701  62.840 -26.423  0.00  0.00    -0.475 OA
BRANCH  32  33
ATOM     33  C27 UNL     1     -36.076  63.110 -25.101  0.00  0.00    +0.139 A 
ATOM     34  C28 UNL     1     -37.353  62.725 -24.687  0.00  0.00    +0.037 A 
ATOM     35  C29 UNL     1     -37.794  62.998 -23.391  0.00  0.00    +0.006 A 
ATOM     36  C30 UNL     1     -36.952  63.650 -22.469  0.00  0.00    +0.040 A 
ATOM     37  C32 UNL     1     -35.654  64.014 -22.881  0.00  0.00    +0.006 A 
ATOM     38  C33 UNL     1     -35.222  63.753 -24.186  0.00  0.00    +0.037 A 
BRANCH  36  39
ATOM     39  C31 UNL     1     -37.426  63.953 -21.094  0.00  0.00    +0.208 A 
ATOM     40  N3  UNL     1     -37.067  65.030 -20.362  0.00  0.00    -0.106 NA
ATOM     41  N4  UNL     1     -37.728  64.926 -19.222  0.00  0.00    -0.021 NA
ATOM     42  N5  UNL     1     -38.466  63.830 -19.237  0.00  0.00    -0.021 NA
ATOM     43  N6  UNL     1     -38.303  63.204 -20.388  0.00  0.00    -0.106 NA
ENDBRANCH  36  39
ENDBRANCH  32  33
ENDBRANCH  31  32
ENDBRANCH  30  31
ENDBRANCH  29  30
ENDBRANCH  28  29
ENDBRANCH  27  28
ENDBRANCH   6  27
TORSDOF 11
ENDMDL
MODEL 5
REMARK VINA RESULT:      -5.4      3.139      6.636
REMARK  Name = ./data/4wxx_site_bc02/pdb/l1c0.pdb
REMARK  11 active torsions:
REMARK  status: ('A' for Active; 'I' for Inactive)
REMARK    1  A    between atoms: O1_2  and  C2_3
REMARK    2  A    between atoms: C5_6  and  C6_7
REMARK    3  A    between atoms: N2_9  and  C7_10
REMARK    4  A    between atoms: C22_26  and  O3_27
REMARK    5  A    between atoms: O3_27  and  C23_28
REMARK    6  A    between atoms: C23_28  and  C24_29
REMARK    7  A    between atoms: C24_29  and  C25_30
REMARK    8  A    between atoms: C25_30  and  C26_31
REMARK    9  A    between atoms: C26_31  and  O4_32
REMARK   10  A    between atoms: O4_32  and  C27_33
REMARK   11  A    between atoms: C30_36  and  C31_37
REMARK                            x       y       z     vdW  Elec       q    Type
REMARK                         _______ _______ _______ _____ _____    ______ ____
ROOT
ATOM      1  C2  UNL     1     -36.990  62.339 -22.717  0.00  0.00    +0.172 A 
ATOM      2  C3  UNL     1     -36.582  62.631 -21.405  0.00  0.00    +0.040 A 
ATOM      3  C4  UNL     1     -35.371  63.281 -21.170  0.00  0.00    +0.005 A 
ATOM      4  C5  UNL     1     -34.537  63.666 -22.234  0.00  0.00    +0.018 A 
ATOM      5  C21 UNL     1     -34.958  63.384 -23.549  0.00  0.00    +0.041 A 
ATOM      6  C22 UNL     1     -36.169  62.704 -23.794  0.00  0.00    +0.172 A 
ENDROOT
BRANCH   4   7
ATOM      7  C6  UNL     1     -33.244  64.361 -21.952  0.00  0.00    +0.079 C 
ATOM      8  N1  UNL     1     -33.239  65.659 -21.867  0.00  0.00    -0.172 NA
ATOM      9  N2  UNL     1     -32.090  66.433 -21.606  0.00  0.00    -0.222 N 
ATOM     10  C14 UNL     1     -30.987  65.871 -21.163  0.00  0.00    +0.253 C 
ATOM     11  O2  UNL     1     -29.894  66.673 -20.817  0.00  0.00    -0.271 OA
ATOM     12  C15 UNL     1     -30.928  64.364 -20.946  0.00  0.00    +0.091 C 
ATOM     13  C16 UNL     1     -29.520  63.772 -21.162  0.00  0.00    +0.035 C 
ATOM     14  C17 UNL     1     -29.092  64.002 -22.580  0.00  0.00    -0.030 C 
ATOM     15  C18 UNL     1     -29.972  63.835 -23.575  0.00  0.00    -0.030 C 
ATOM     16  C19 UNL     1     -31.376  63.338 -23.317  0.00  0.00    +0.032 C 
ATOM     17  C20 UNL     1     -31.926  63.620 -21.878  0.00  0.00    +0.056 C 
BRANCH   9  18
ATOM     18  C7  UNL     1     -32.225  67.894 -21.782  0.00  0.00    +0.108 C 
ATOM     19  C8  UNL     1     -33.313  68.231 -22.837  0.00  0.00    +0.024 C 
ATOM     20  C9  UNL     1     -33.006  69.525 -23.608  0.00  0.00    +0.002 C 
ATOM     21  C10 UNL     1     -33.325  70.799 -22.819  0.00  0.00    +0.000 C 
ATOM     22  C11 UNL     1     -32.536  70.922 -21.509  0.00  0.00    +0.000 C 
ATOM     23  C12 UNL     1     -33.066  69.974 -20.420  0.00  0.00    +0.002 C 
ATOM     24  C13 UNL     1     -32.385  68.596 -20.405  0.00  0.00    +0.024 C 
ENDBRANCH   9  18
ENDBRANCH   4   7
BRANCH   1  26
ATOM     25  C1  UNL     1     -38.584  60.433 -22.439  0.00  0.00    +0.253 C 
ATOM     26  O1  UNL     1     -38.201  61.687 -22.994  0.00  0.00    -0.468 OA
ENDBRANCH   1  26
BRANCH   6  27
ATOM     27  O3  UNL     1     -36.598  62.372 -25.091  0.00  0.00    -0.472 OA
BRANCH  27  28
ATOM     28  C23 UNL     1     -35.752  62.133 -26.215  0.00  0.00    +0.206 C 
BRANCH  28  29
ATOM     29  C24 UNL     1     -36.542  62.253 -27.520  0.00  0.00    +0.051 C 
BRANCH  29  30
ATOM     30  C25 UNL     1     -35.991  63.379 -28.403  0.00  0.00    +0.051 C 
BRANCH  30  31
ATOM     31  C26 UNL     1     -34.971  64.231 -27.648  0.00  0.00    +0.206 C 
BRANCH  31  32
ATOM     32  O4  UNL     1     -35.317  65.609 -27.777  0.00  0.00    -0.475 OA
BRANCH  32  33
ATOM     33  C27 UNL     1     -35.795  66.415 -26.735  0.00  0.00    +0.139 A 
ATOM     34  C28 UNL     1     -36.724  65.864 -25.850  0.00  0.00    +0.037 A 
ATOM     35  C29 UNL     1     -37.261  66.629 -24.813  0.00  0.00    +0.006 A 
ATOM     36  C30 UNL     1     -36.860  67.966 -24.628  0.00  0.00    +0.040 A 
ATOM     37  C32 UNL     1     -35.904  68.513 -25.506  0.00  0.00    +0.006 A 
ATOM     38  C33 UNL     1     -35.380  67.747 -26.554  0.00  0.00    +0.037 A 
BRANCH  36  39
ATOM     39  C31 UNL     1     -37.442  68.785 -23.533  0.00  0.00    +0.208 A 
ATOM     40  N3  UNL     1     -36.823  69.091 -22.372  0.00  0.00    -0.106 NA
ATOM     41  N4  UNL     1     -37.673  69.847 -21.699  0.00  0.00    -0.021 NA
ATOM     42  N5  UNL     1     -38.779  70.005 -22.406  0.00  0.00    -0.021 NA
ATOM     43  N6  UNL     1     -38.665  69.360 -23.552  0.00  0.00    -0.106 NA
ENDBRANCH  36  39
ENDBRANCH  32  33
ENDBRANCH  31  32
ENDBRANCH  30  31
ENDBRANCH  29  30
ENDBRANCH  28  29
ENDBRANCH  27  28
ENDBRANCH   6  27
TORSDOF 11
ENDMDL
MODEL 6
REMARK VINA RESULT:      -5.1      4.404      7.422
REMARK  Name = ./data/4wxx_site_bc02/pdb/l1c0.pdb
REMARK  11 active torsions:
REMARK  status: ('A' for Active; 'I' for Inactive)
REMARK    1  A    between atoms: O1_2  and  C2_3
REMARK    2  A    between atoms: C5_6  and  C6_7
REMARK    3  A    between atoms: N2_9  and  C7_10
REMARK    4  A    between atoms: C22_26  and  O3_27
REMARK    5  A    between atoms: O3_27  and  C23_28
REMARK    6  A    between atoms: C23_28  and  C24_29
REMARK    7  A    between atoms: C24_29  and  C25_30
REMARK    8  A    between atoms: C25_30  and  C26_31
REMARK    9  A    between atoms: C26_31  and  O4_32
REMARK   10  A    between atoms: O4_32  and  C27_33
REMARK   11  A    between atoms: C30_36  and  C31_37
REMARK                            x       y       z     vdW  Elec       q    Type
REMARK                         _______ _______ _______ _____ _____    ______ ____
ROOT
ATOM      1  C2  UNL     1     -37.667  62.824 -22.724  0.00  0.00    +0.172 A 
ATOM      2  C3  UNL     1     -36.932  62.535 -21.563  0.00  0.00    +0.040 A 
ATOM      3  C4  UNL     1     -35.666  63.089 -21.372  0.00  0.00    +0.005 A 
ATOM      4  C5  UNL     1     -35.103  63.952 -22.328  0.00  0.00    +0.018 A 
ATOM      5  C21 UNL     1     -35.850  64.250 -23.484  0.00  0.00    +0.041 A 
ATOM      6  C22 UNL     1     -37.120  63.673 -23.697  0.00  0.00    +0.172 A 
ENDROOT
BRANCH   4   7
ATOM      7  C6  UNL     1     -33.744  64.532 -22.096  0.00  0.00    +0.079 C 
ATOM      8  N1  UNL     1     -33.630  65.820 -21.960  0.00  0.00    -0.172 NA
ATOM      9  N2  UNL     1     -32.409  66.489 -21.738  0.00  0.00    -0.222 N 
ATOM     10  C14 UNL     1     -31.331  65.824 -21.386  0.00  0.00    +0.253 C 
ATOM     11  O2  UNL     1     -30.159  66.522 -21.074  0.00  0.00    -0.271 OA
ATOM     12  C15 UNL     1     -31.382  64.309 -21.232  0.00  0.00    +0.091 C 
ATOM     13  C16 UNL     1     -30.041  63.619 -21.556  0.00  0.00    +0.035 C 
ATOM     14  C17 UNL     1     -29.677  63.878 -22.986  0.00  0.00    -0.030 C 
ATOM     15  C18 UNL     1     -30.623  63.824 -23.933  0.00  0.00    -0.030 C 
ATOM     16  C19 UNL     1     -32.045  63.427 -23.610  0.00  0.00    +0.032 C 
ATOM     17  C20 UNL     1     -32.488  63.687 -22.131  0.00  0.00    +0.056 C 
BRANCH   9  18
ATOM     18  C7  UNL     1     -32.436  67.963 -21.847  0.00  0.00    +0.108 C 
ATOM     19  C8  UNL     1     -33.585  68.433 -22.779  0.00  0.00    +0.024 C 
ATOM     20  C9  UNL     1     -33.244  69.730 -23.530  0.00  0.00    +0.002 C 
ATOM     21  C10 UNL     1     -33.378  70.990 -22.668  0.00  0.00    +0.000 C 
ATOM     22  C11 UNL     1     -32.462  70.991 -21.437  0.00  0.00    +0.000 C 
ATOM     23  C12 UNL     1     -32.966  70.042 -20.337  0.00  0.00    +0.002 C 
ATOM     24  C13 UNL     1     -32.406  68.615 -20.438  0.00  0.00    +0.024 C 
ENDBRANCH   9  18
ENDBRANCH   4   7
BRANCH   1  26
ATOM     25  C1  UNL     1     -40.062  62.477 -22.091  0.00  0.00    +0.253 C 
ATOM     26  O1  UNL     1     -38.944  62.286 -22.952  0.00  0.00    -0.468 OA
ENDBRANCH   1  26
BRANCH   6  27
ATOM     27  O3  UNL     1     -37.875  63.919 -24.856  0.00  0.00    -0.472 OA
BRANCH  27  28
ATOM     28  C23 UNL     1     -37.400  64.555 -26.042  0.00  0.00    +0.206 C 
BRANCH  28  29
ATOM     29  C24 UNL     1     -37.559  63.629 -27.252  0.00  0.00    +0.051 C 
BRANCH  29  30
ATOM     30  C25 UNL     1     -38.850  63.936 -28.021  0.00  0.00    +0.051 C 
BRANCH  30  31
ATOM     31  C26 UNL     1     -39.863  62.800 -27.883  0.00  0.00    +0.206 C 
BRANCH  31  32
ATOM     32  O4  UNL     1     -39.373  61.838 -26.951  0.00  0.00    -0.475 OA
BRANCH  32  33
ATOM     33  C27 UNL     1     -39.773  60.496 -26.901  0.00  0.00    +0.139 A 
ATOM     34  C28 UNL     1     -39.969  59.823 -28.109  0.00  0.00    +0.037 A 
ATOM     35  C29 UNL     1     -40.400  58.495 -28.123  0.00  0.00    +0.006 A 
ATOM     36  C30 UNL     1     -40.626  57.803 -26.917  0.00  0.00    +0.040 A 
ATOM     37  C32 UNL     1     -40.403  58.476 -25.700  0.00  0.00    +0.006 A 
ATOM     38  C33 UNL     1     -39.986  59.811 -25.691  0.00  0.00    +0.037 A 
BRANCH  36  39
ATOM     39  C31 UNL     1     -41.098  56.394 -26.932  0.00  0.00    +0.208 A 
ATOM     40  N3  UNL     1     -41.976  55.872 -27.815  0.00  0.00    -0.106 NA
ATOM     41  N4  UNL     1     -42.100  54.597 -27.488  0.00  0.00    -0.021 NA
ATOM     42  N5  UNL     1     -41.335  54.332 -26.444  0.00  0.00    -0.021 NA
ATOM     43  N6  UNL     1     -40.697  55.427 -26.075  0.00  0.00    -0.106 NA
ENDBRANCH  36  39
ENDBRANCH  32  33
ENDBRANCH  31  32
ENDBRANCH  30  31
ENDBRANCH  29  30
ENDBRANCH  28  29
ENDBRANCH  27  28
ENDBRANCH   6  27
TORSDOF 11
ENDMDL
MODEL 7
REMARK VINA RESULT:      -4.4      5.120      7.970
REMARK  Name = ./data/4wxx_site_bc02/pdb/l1c0.pdb
REMARK  11 active torsions:
REMARK  status: ('A' for Active; 'I' for Inactive)
REMARK    1  A    between atoms: O1_2  and  C2_3
REMARK    2  A    between atoms: C5_6  and  C6_7
REMARK    3  A    between atoms: N2_9  and  C7_10
REMARK    4  A    between atoms: C22_26  and  O3_27
REMARK    5  A    between atoms: O3_27  and  C23_28
REMARK    6  A    between atoms: C23_28  and  C24_29
REMARK    7  A    between atoms: C24_29  and  C25_30
REMARK    8  A    between atoms: C25_30  and  C26_31
REMARK    9  A    between atoms: C26_31  and  O4_32
REMARK   10  A    between atoms: O4_32  and  C27_33
REMARK   11  A    between atoms: C30_36  and  C31_37
REMARK                            x       y       z     vdW  Elec       q    Type
REMARK                         _______ _______ _______ _____ _____    ______ ____
ROOT
ATOM      1  C2  UNL     1     -37.688  61.870 -23.552  0.00  0.00    +0.172 A 
ATOM      2  C3  UNL     1     -36.745  61.577 -22.554  0.00  0.00    +0.040 A 
ATOM      3  C4  UNL     1     -35.747  62.497 -22.233  0.00  0.00    +0.005 A 
ATOM      4  C5  UNL     1     -35.667  63.737 -22.892  0.00  0.00    +0.018 A 
ATOM      5  C21 UNL     1     -36.624  64.031 -23.882  0.00  0.00    +0.041 A 
ATOM      6  C22 UNL     1     -37.621  63.095 -24.230  0.00  0.00    +0.172 A 
ENDROOT
BRANCH   4   7
ATOM      7  C6  UNL     1     -34.586  64.704 -22.528  0.00  0.00    +0.079 C 
ATOM      8  N1  UNL     1     -34.872  65.972 -22.484  0.00  0.00    -0.172 NA
ATOM      9  N2  UNL     1     -33.946  66.983 -22.155  0.00  0.00    -0.222 N 
ATOM     10  C14 UNL     1     -32.790  66.684 -21.606  0.00  0.00    +0.253 C 
ATOM     11  O2  UNL     1     -31.932  67.711 -21.198  0.00  0.00    -0.271 OA
ATOM     12  C15 UNL     1     -32.422  65.230 -21.337  0.00  0.00    +0.091 C 
ATOM     13  C16 UNL     1     -30.906  64.959 -21.419  0.00  0.00    +0.035 C 
ATOM     14  C17 UNL     1     -30.418  65.260 -22.804  0.00  0.00    -0.030 C 
ATOM     15  C18 UNL     1     -31.150  64.890 -23.862  0.00  0.00    -0.030 C 
ATOM     16  C19 UNL     1     -32.429  64.099 -23.702  0.00  0.00    +0.032 C 
ATOM     17  C20 UNL     1     -33.149  64.272 -22.323  0.00  0.00    +0.056 C 
BRANCH   9  18
ATOM     18  C7  UNL     1     -34.382  68.376 -22.388  0.00  0.00    +0.108 C 
ATOM     19  C8  UNL     1     -33.655  68.991 -23.614  0.00  0.00    +0.024 C 
ATOM     20  C9  UNL     1     -33.440  70.507 -23.474  0.00  0.00    +0.002 C 
ATOM     21  C10 UNL     1     -34.698  71.333 -23.759  0.00  0.00    +0.000 C 
ATOM     22  C11 UNL     1     -35.868  71.011 -22.821  0.00  0.00    +0.000 C 
ATOM     23  C12 UNL     1     -36.532  69.666 -23.162  0.00  0.00    +0.002 C 
ATOM     24  C13 UNL     1     -35.932  68.466 -22.413  0.00  0.00    +0.024 C 
ENDBRANCH   9  18
ENDBRANCH   4   7
BRANCH   1  26
ATOM     25  C1  UNL     1     -39.884  60.749 -23.132  0.00  0.00    +0.253 C 
ATOM     26  O1  UNL     1     -38.707  60.970 -23.902  0.00  0.00    -0.468 OA
ENDBRANCH   1  26
BRANCH   6  27
ATOM     27  O3  UNL     1     -38.567  63.342 -25.240  0.00  0.00    -0.472 OA
BRANCH  27  28
ATOM     28  C23 UNL     1     -38.280  63.518 -26.627  0.00  0.00    +0.206 C 
BRANCH  28  29
ATOM     29  C24 UNL     1     -37.561  62.288 -27.189  0.00  0.00    +0.051 C 
BRANCH  29  30
ATOM     30  C25 UNL     1     -38.291  61.729 -28.417  0.00  0.00    +0.051 C 
BRANCH  30  31
ATOM     31  C26 UNL     1     -39.095  60.478 -28.066  0.00  0.00    +0.206 C 
BRANCH  31  32
ATOM     32  O4  UNL     1     -40.111  60.817 -27.123  0.00  0.00    -0.475 OA
BRANCH  32  33
ATOM     33  C27 UNL     1     -41.303  60.103 -26.940  0.00  0.00    +0.139 A 
ATOM     34  C28 UNL     1     -41.297  59.029 -26.047  0.00  0.00    +0.037 A 
ATOM     35  C29 UNL     1     -42.445  58.260 -25.849  0.00  0.00    +0.006 A 
ATOM     36  C30 UNL     1     -43.638  58.565 -26.533  0.00  0.00    +0.040 A 
ATOM     37  C32 UNL     1     -43.649  59.665 -27.414  0.00  0.00    +0.006 A 
ATOM     38  C33 UNL     1     -42.491  60.423 -27.621  0.00  0.00    +0.037 A 
BRANCH  36  39
ATOM     39  C31 UNL     1     -44.856  57.739 -26.333  0.00  0.00    +0.208 A 
ATOM     40  N3  UNL     1     -44.984  56.738 -25.434  0.00  0.00    -0.106 NA
ATOM     41  N4  UNL     1     -46.220  56.289 -25.571  0.00  0.00    -0.021 NA
ATOM     42  N5  UNL     1     -46.839  56.975 -26.516  0.00  0.00    -0.021 NA
ATOM     43  N6  UNL     1     -46.019  57.886 -27.007  0.00  0.00    -0.106 NA
ENDBRANCH  36  39
ENDBRANCH  32  33
ENDBRANCH  31  32
ENDBRANCH  30  31
ENDBRANCH  29  30
ENDBRANCH  28  29
ENDBRANCH  27  28
ENDBRANCH   6  27
TORSDOF 11
ENDMDL
