MODEL 1
REMARK VINA RESULT:       3.5      0.000      0.000
REMARK  Name = ./data/4wxx_site_bc02/pdb/l0c0.pdb
REMARK  11 active torsions:
REMARK  status: ('A' for Active; 'I' for Inactive)
REMARK    1  A    between atoms: O1_2  and  C2_3
REMARK    2  A    between atoms: C5_6  and  C6_7
REMARK    3  A    between atoms: N2_9  and  C7_10
REMARK    4  A    between atoms: C19_23  and  O3_24
REMARK    5  A    between atoms: O3_24  and  C20_25
REMARK    6  A    between atoms: C20_25  and  C21_26
REMARK    7  A    between atoms: C21_26  and  C22_27
REMARK    8  A    between atoms: C22_27  and  C23_28
REMARK    9  A    between atoms: C23_28  and  O4_29
REMARK   10  A    between atoms: O4_29  and  C24_30
REMARK   11  A    between atoms: C27_33  and  C28_34
REMARK                            x       y       z     vdW  Elec       q    Type
REMARK                         _______ _______ _______ _____ _____    ______ ____
ROOT
ATOM      1  C2  UNL     1     -84.564  55.047   5.239  0.00  0.00    +0.172 A 
ATOM      2  C3  UNL     1     -83.688  54.703   4.193  0.00  0.00    +0.040 A 
ATOM      3  C4  UNL     1     -82.882  53.566   4.283  0.00  0.00    +0.005 A 
ATOM      4  C5  UNL     1     -82.928  52.746   5.422  0.00  0.00    +0.019 A 
ATOM      5  C18 UNL     1     -83.788  53.110   6.476  0.00  0.00    +0.041 A 
ATOM      6  C19 UNL     1     -84.622  54.240   6.383  0.00  0.00    +0.172 A 
ENDROOT
BRANCH   4   7
ATOM      7  C6  UNL     1     -82.126  51.493   5.550  0.00  0.00    +0.086 C 
ATOM      8  N1  UNL     1     -82.015  50.893   6.692  0.00  0.00    -0.171 NA
ATOM      9  N2  UNL     1     -81.256  49.734   6.558  0.00  0.00    -0.222 N 
ATOM     10  C14 UNL     1     -80.876  49.593   5.331  0.00  0.00    +0.257 C 
ATOM     11  O2  UNL     1     -80.096  48.526   4.889  0.00  0.00    -0.270 OA
ATOM     12  C15 UNL     1     -81.393  50.712   4.468  0.00  0.00    +0.110 C 
ATOM     13  C16 UNL     1     -80.216  51.496   3.867  0.00  0.00    +0.015 C 
ATOM     14  C17 UNL     1     -82.343  50.141   3.400  0.00  0.00    +0.015 C 
BRANCH   9  15
ATOM     15  C7  UNL     1     -80.985  48.819   7.676  0.00  0.00    +0.108 C 
ATOM     16  C8  UNL     1     -79.518  48.989   8.129  0.00  0.00    +0.024 C 
ATOM     17  C9  UNL     1     -79.204  48.347   9.492  0.00  0.00    +0.002 C 
ATOM     18  C10 UNL     1     -79.423  49.325  10.658  0.00  0.00    +0.000 C 
ATOM     19  C11 UNL     1     -80.899  49.565  10.997  0.00  0.00    +0.000 C 
ATOM     20  C12 UNL     1     -81.722  50.109   9.820  0.00  0.00    +0.002 C 
ATOM     21  C13 UNL     1     -82.050  49.018   8.783  0.00  0.00    +0.024 C 
ENDBRANCH   9  15
ENDBRANCH   4   7
BRANCH   1  23
ATOM     22  C1  UNL     1     -86.121  56.586   4.025  0.00  0.00    +0.253 C 
ATOM     23  O1  UNL     1     -85.391  56.180   5.179  0.00  0.00    -0.468 OA
ENDBRANCH   1  23
BRANCH   6  24
ATOM     24  O3  UNL     1     -85.522  54.594   7.406  0.00  0.00    -0.472 OA
BRANCH  24  25
ATOM     25  C20 UNL     1     -86.186  53.675   8.277  0.00  0.00    +0.206 C 
BRANCH  25  26
ATOM     26  C21 UNL     1     -86.117  54.151   9.735  0.00  0.00    +0.051 C 
BRANCH  26  27
ATOM     27  C22 UNL     1     -87.138  55.264   9.995  0.00  0.00    +0.051 C 
BRANCH  27  28
ATOM     28  C23 UNL     1     -88.469  54.968   9.295  0.00  0.00    +0.206 C 
BRANCH  28  29
ATOM     29  O4  UNL     1     -89.427  54.475  10.232  0.00  0.00    -0.475 OA
BRANCH  29  30
ATOM     30  C24 UNL     1     -89.525  53.141  10.666  0.00  0.00    +0.139 A 
ATOM     31  C25 UNL     1     -89.641  52.788  12.024  0.00  0.00    +0.037 A 
ATOM     32  C26 UNL     1     -89.734  51.444  12.400  0.00  0.00    +0.006 A 
ATOM     33  C27 UNL     1     -89.719  50.428  11.429  0.00  0.00    +0.040 A 
ATOM     34  C29 UNL     1     -89.609  50.785  10.075  0.00  0.00    +0.006 A 
ATOM     35  C30 UNL     1     -89.514  52.130   9.700  0.00  0.00    +0.037 A 
BRANCH  33  36
ATOM     36  C28 UNL     1     -89.820  49.003  11.829  0.00  0.00    +0.208 A 
ATOM     37  N3  UNL     1     -89.114  48.419  12.824  0.00  0.00    -0.106 NA
ATOM     38  N4  UNL     1     -89.497  47.152  12.839  0.00  0.00    -0.021 NA
ATOM     39  N5  UNL     1     -90.405  46.953  11.899  0.00  0.00    -0.021 NA
ATOM     40  N6  UNL     1     -90.627  48.086  11.252  0.00  0.00    -0.106 NA
ENDBRANCH  33  36
ENDBRANCH  29  30
ENDBRANCH  28  29
ENDBRANCH  27  28
ENDBRANCH  26  27
ENDBRANCH  25  26
ENDBRANCH  24  25
ENDBRANCH   6  24
TORSDOF 11
ENDMDL
MODEL 2
REMARK VINA RESULT:       4.8      3.597      4.379
REMARK  Name = ./data/4wxx_site_bc02/pdb/l0c0.pdb
REMARK  11 active torsions:
REMARK  status: ('A' for Active; 'I' for Inactive)
REMARK    1  A    between atoms: O1_2  and  C2_3
REMARK    2  A    between atoms: C5_6  and  C6_7
REMARK    3  A    between atoms: N2_9  and  C7_10
REMARK    4  A    between atoms: C19_23  and  O3_24
REMARK    5  A    between atoms: O3_24  and  C20_25
REMARK    6  A    between atoms: C20_25  and  C21_26
REMARK    7  A    between atoms: C21_26  and  C22_27
REMARK    8  A    between atoms: C22_27  and  C23_28
REMARK    9  A    between atoms: C23_28  and  O4_29
REMARK   10  A    between atoms: O4_29  and  C24_30
REMARK   11  A    between atoms: C27_33  and  C28_34
REMARK                            x       y       z     vdW  Elec       q    Type
REMARK                         _______ _______ _______ _____ _____    ______ ____
ROOT
ATOM      1  C2  UNL     1     -84.576  54.861   5.423  0.00  0.00    +0.172 A 
ATOM      2  C3  UNL     1     -83.597  54.612   4.443  0.00  0.00    +0.040 A 
ATOM      3  C4  UNL     1     -82.760  53.497   4.539  0.00  0.00    +0.005 A 
ATOM      4  C5  UNL     1     -82.879  52.605   5.618  0.00  0.00    +0.019 A 
ATOM      5  C18 UNL     1     -83.844  52.874   6.607  0.00  0.00    +0.041 A 
ATOM      6  C19 UNL     1     -84.707  53.982   6.506  0.00  0.00    +0.172 A 
ENDROOT
BRANCH   4   7
ATOM      7  C6  UNL     1     -82.046  51.373   5.743  0.00  0.00    +0.086 C 
ATOM      8  N1  UNL     1     -81.911  50.780   6.887  0.00  0.00    -0.171 NA
ATOM      9  N2  UNL     1     -81.126  49.638   6.750  0.00  0.00    -0.222 N 
ATOM     10  C14 UNL     1     -80.753  49.502   5.521  0.00  0.00    +0.257 C 
ATOM     11  O2  UNL     1     -79.951  48.452   5.076  0.00  0.00    -0.270 OA
ATOM     12  C15 UNL     1     -81.303  50.605   4.658  0.00  0.00    +0.110 C 
ATOM     13  C16 UNL     1     -80.151  51.414   4.045  0.00  0.00    +0.015 C 
ATOM     14  C17 UNL     1     -82.248  50.007   3.600  0.00  0.00    +0.015 C 
BRANCH   9  15
ATOM     15  C7  UNL     1     -80.824  48.735   7.869  0.00  0.00    +0.108 C 
ATOM     16  C8  UNL     1     -79.344  48.907   8.278  0.00  0.00    +0.024 C 
ATOM     17  C9  UNL     1     -78.992  48.278   9.638  0.00  0.00    +0.002 C 
ATOM     18  C10 UNL     1     -79.175  49.268  10.799  0.00  0.00    +0.000 C 
ATOM     19  C11 UNL     1     -80.641  49.515  11.179  0.00  0.00    +0.000 C 
ATOM     20  C12 UNL     1     -81.497  50.048  10.020  0.00  0.00    +0.002 C 
ATOM     21  C13 UNL     1     -81.856  48.947   9.005  0.00  0.00    +0.024 C 
ENDBRANCH   9  15
ENDBRANCH   4   7
BRANCH   1  23
ATOM     22  C1  UNL     1     -86.125  56.385   4.180  0.00  0.00    +0.253 C 
ATOM     23  O1  UNL     1     -85.435  55.969   5.355  0.00  0.00    -0.468 OA
ENDBRANCH   1  23
BRANCH   6  24
ATOM     24  O3  UNL     1     -85.708  54.241   7.460  0.00  0.00    -0.472 OA
BRANCH  24  25
ATOM     25  C20 UNL     1     -85.703  53.778   8.812  0.00  0.00    +0.206 C 
BRANCH  25  26
ATOM     26  C21 UNL     1     -85.948  52.264   8.877  0.00  0.00    +0.051 C 
BRANCH  26  27
ATOM     27  C22 UNL     1     -87.066  51.934   9.872  0.00  0.00    +0.051 C 
BRANCH  27  28
ATOM     28  C23 UNL     1     -88.093  50.981   9.253  0.00  0.00    +0.206 C 
BRANCH  28  29
ATOM     29  O4  UNL     1     -89.267  51.695   8.863  0.00  0.00    -0.475 OA
BRANCH  29  30
ATOM     30  C24 UNL     1     -89.427  53.090   8.930  0.00  0.00    +0.139 A 
ATOM     31  C25 UNL     1     -89.120  53.944   7.853  0.00  0.00    +0.037 A 
ATOM     32  C26 UNL     1     -89.297  55.326   7.974  0.00  0.00    +0.006 A 
ATOM     33  C27 UNL     1     -89.788  55.882   9.168  0.00  0.00    +0.040 A 
ATOM     34  C29 UNL     1     -90.098  55.025  10.238  0.00  0.00    +0.006 A 
ATOM     35  C30 UNL     1     -89.918  53.643  10.116  0.00  0.00    +0.037 A 
BRANCH  33  36
ATOM     36  C28 UNL     1     -89.977  57.348   9.295  0.00  0.00    +0.208 A 
ATOM     37  N3  UNL     1     -90.808  57.956  10.172  0.00  0.00    -0.106 NA
ATOM     38  N4  UNL     1     -90.679  59.253   9.947  0.00  0.00    -0.021 NA
ATOM     39  N5  UNL     1     -89.804  59.449   8.975  0.00  0.00    -0.021 NA
ATOM     40  N6  UNL     1     -89.350  58.283   8.548  0.00  0.00    -0.106 NA
ENDBRANCH  33  36
ENDBRANCH  29  30
ENDBRANCH  28  29
ENDBRANCH  27  28
ENDBRANCH  26  27
ENDBRANCH  25  26
ENDBRANCH  24  25
ENDBRANCH   6  24
TORSDOF 11
ENDMDL
