MODEL 1
REMARK VINA RESULT:      -9.2      0.000      0.000
REMARK  Name = ./data/4wxx_site_bc02/pdb/l1c2.pdb
REMARK  11 active torsions:
REMARK  status: ('A' for Active; 'I' for Inactive)
REMARK    1  A    between atoms: O1_2  and  C2_3
REMARK    2  A    between atoms: C5_6  and  C6_7
REMARK    3  A    between atoms: N2_9  and  C7_10
REMARK    4  A    between atoms: C22_26  and  O3_27
REMARK    5  A    between atoms: O3_27  and  C23_28
REMARK    6  A    between atoms: C23_28  and  C24_29
REMARK    7  A    between atoms: C24_29  and  C25_30
REMARK    8  A    between atoms: C25_30  and  C26_31
REMARK    9  A    between atoms: C26_31  and  O4_32
REMARK   10  A    between atoms: O4_32  and  C27_33
REMARK   11  A    between atoms: C30_36  and  C31_37
REMARK                            x       y       z     vdW  Elec       q    Type
REMARK                         _______ _______ _______ _____ _____    ______ ____
ROOT
ATOM      1  C2  UNL     1     -53.160  62.302   7.331  0.00  0.00    +0.172 A 
ATOM      2  C3  UNL     1     -52.022  62.077   8.130  0.00  0.00    +0.040 A 
ATOM      3  C4  UNL     1     -51.165  61.008   7.858  0.00  0.00    +0.005 A 
ATOM      4  C5  UNL     1     -51.421  60.159   6.773  0.00  0.00    +0.018 A 
ATOM      5  C21 UNL     1     -52.574  60.358   5.998  0.00  0.00    +0.041 A 
ATOM      6  C22 UNL     1     -53.438  61.438   6.259  0.00  0.00    +0.172 A 
ENDROOT
BRANCH   4   7
ATOM      7  C6  UNL     1     -50.514  59.045   6.439  0.00  0.00    +0.079 C 
ATOM      8  N1  UNL     1     -51.036  57.860   6.298  0.00  0.00    -0.172 NA
ATOM      9  N2  UNL     1     -50.326  56.751   5.781  0.00  0.00    -0.222 N 
ATOM     10  C14 UNL     1     -49.015  56.803   5.655  0.00  0.00    +0.253 C 
ATOM     11  O2  UNL     1     -48.295  55.732   5.120  0.00  0.00    -0.271 OA
ATOM     12  C15 UNL     1     -48.263  58.025   6.123  0.00  0.00    +0.091 C 
ATOM     13  C16 UNL     1     -47.897  57.872   7.612  0.00  0.00    +0.035 C 
ATOM     14  C17 UNL     1     -47.475  59.165   8.257  0.00  0.00    -0.030 C 
ATOM     15  C18 UNL     1     -47.795  60.365   7.753  0.00  0.00    -0.030 C 
ATOM     16  C19 UNL     1     -48.387  60.537   6.381  0.00  0.00    +0.032 C 
ATOM     17  C20 UNL     1     -49.123  59.277   5.878  0.00  0.00    +0.056 C 
BRANCH   9  18
ATOM     18  C7  UNL     1     -51.137  55.602   5.327  0.00  0.00    +0.108 C 
ATOM     19  C8  UNL     1     -52.638  55.961   5.265  0.00  0.00    +0.024 C 
ATOM     20  C9  UNL     1     -53.522  54.825   4.720  0.00  0.00    +0.002 C 
ATOM     21  C10 UNL     1     -53.738  53.710   5.759  0.00  0.00    +0.000 C 
ATOM     22  C11 UNL     1     -52.675  52.594   5.736  0.00  0.00    +0.000 C 
ATOM     23  C12 UNL     1     -51.228  53.038   5.452  0.00  0.00    +0.002 C 
ATOM     24  C13 UNL     1     -50.816  54.340   6.164  0.00  0.00    +0.024 C 
ENDBRANCH   9  18
ENDBRANCH   4   7
BRANCH   1  26
ATOM     25  C1  UNL     1     -53.860  64.346   8.595  0.00  0.00    +0.253 C 
ATOM     26  O1  UNL     1     -54.031  63.380   7.562  0.00  0.00    -0.468 OA
ENDBRANCH   1  26
BRANCH   6  27
ATOM     27  O3  UNL     1     -54.571  61.696   5.468  0.00  0.00    -0.472 OA
BRANCH  27  28
ATOM     28  C23 UNL     1     -54.897  61.007   4.262  0.00  0.00    +0.206 C 
BRANCH  28  29
ATOM     29  C24 UNL     1     -54.436  61.820   3.052  0.00  0.00    +0.051 C 
BRANCH  29  30
ATOM     30  C25 UNL     1     -54.850  63.293   3.185  0.00  0.00    +0.051 C 
BRANCH  30  31
ATOM     31  C26 UNL     1     -53.624  64.210   3.266  0.00  0.00    +0.206 C 
BRANCH  31  32
ATOM     32  O4  UNL     1     -52.446  63.452   3.547  0.00  0.00    -0.475 OA
BRANCH  32  33
ATOM     33  C27 UNL     1     -51.207  63.990   3.940  0.00  0.00    +0.139 A 
ATOM     34  C28 UNL     1     -50.541  63.602   5.120  0.00  0.00    +0.037 A 
ATOM     35  C29 UNL     1     -49.326  64.197   5.474  0.00  0.00    +0.006 A 
ATOM     36  C30 UNL     1     -48.746  65.176   4.651  0.00  0.00    +0.040 A 
ATOM     37  C32 UNL     1     -49.405  65.549   3.468  0.00  0.00    +0.006 A 
ATOM     38  C33 UNL     1     -50.622  64.962   3.118  0.00  0.00    +0.037 A 
BRANCH  36  39
ATOM     39  C31 UNL     1     -47.458  65.801   5.024  0.00  0.00    +0.208 A 
ATOM     40  N3  UNL     1     -46.922  66.888   4.429  0.00  0.00    -0.106 NA
ATOM     41  N4  UNL     1     -45.776  67.107   5.049  0.00  0.00    -0.021 NA
ATOM     42  N5  UNL     1     -45.602  66.202   5.994  0.00  0.00    -0.021 NA
ATOM     43  N6  UNL     1     -46.633  65.373   6.004  0.00  0.00    -0.106 NA
ENDBRANCH  36  39
ENDBRANCH  32  33
ENDBRANCH  31  32
ENDBRANCH  30  31
ENDBRANCH  29  30
ENDBRANCH  28  29
ENDBRANCH  27  28
ENDBRANCH   6  27
TORSDOF 11
ENDMDL
MODEL 2
REMARK VINA RESULT:      -7.6      3.498      8.792
REMARK  Name = ./data/4wxx_site_bc02/pdb/l1c2.pdb
REMARK  11 active torsions:
REMARK  status: ('A' for Active; 'I' for Inactive)
REMARK    1  A    between atoms: O1_2  and  C2_3
REMARK    2  A    between atoms: C5_6  and  C6_7
REMARK    3  A    between atoms: N2_9  and  C7_10
REMARK    4  A    between atoms: C22_26  and  O3_27
REMARK    5  A    between atoms: O3_27  and  C23_28
REMARK    6  A    between atoms: C23_28  and  C24_29
REMARK    7  A    between atoms: C24_29  and  C25_30
REMARK    8  A    between atoms: C25_30  and  C26_31
REMARK    9  A    between atoms: C26_31  and  O4_32
REMARK   10  A    between atoms: O4_32  and  C27_33
REMARK   11  A    between atoms: C30_36  and  C31_37
REMARK                            x       y       z     vdW  Elec       q    Type
REMARK                         _______ _______ _______ _____ _____    ______ ____
ROOT
ATOM      1  C2  UNL     1     -50.255  60.504   8.249  0.00  0.00    +0.172 A 
ATOM      2  C3  UNL     1     -50.247  61.848   8.670  0.00  0.00    +0.040 A 
ATOM      3  C4  UNL     1     -50.955  62.818   7.958  0.00  0.00    +0.005 A 
ATOM      4  C5  UNL     1     -51.696  62.459   6.824  0.00  0.00    +0.018 A 
ATOM      5  C21 UNL     1     -51.675  61.128   6.380  0.00  0.00    +0.041 A 
ATOM      6  C22 UNL     1     -50.972  60.141   7.097  0.00  0.00    +0.172 A 
ENDROOT
BRANCH   4   7
ATOM      7  C6  UNL     1     -52.483  63.455   6.074  0.00  0.00    +0.079 C 
ATOM      8  N1  UNL     1     -52.025  63.844   4.919  0.00  0.00    -0.172 NA
ATOM      9  N2  UNL     1     -52.770  64.629   4.007  0.00  0.00    -0.222 N 
ATOM     10  C14 UNL     1     -53.881  65.223   4.397  0.00  0.00    +0.253 C 
ATOM     11  O2  UNL     1     -54.649  65.978   3.509  0.00  0.00    -0.271 OA
ATOM     12  C15 UNL     1     -54.323  65.117   5.836  0.00  0.00    +0.091 C 
ATOM     13  C16 UNL     1     -53.683  66.250   6.662  0.00  0.00    +0.035 C 
ATOM     14  C17 UNL     1     -53.767  66.025   8.147  0.00  0.00    -0.030 C 
ATOM     15  C18 UNL     1     -53.961  64.815   8.688  0.00  0.00    -0.030 C 
ATOM     16  C19 UNL     1     -54.355  63.615   7.869  0.00  0.00    +0.032 C 
ATOM     17  C20 UNL     1     -53.943  63.732   6.387  0.00  0.00    +0.056 C 
BRANCH   9  18
ATOM     18  C7  UNL     1     -52.281  64.663   2.613  0.00  0.00    +0.108 C 
ATOM     19  C8  UNL     1     -52.057  66.113   2.130  0.00  0.00    +0.024 C 
ATOM     20  C9  UNL     1     -51.470  66.206   0.710  0.00  0.00    +0.002 C 
ATOM     21  C10 UNL     1     -52.523  65.910  -0.373  0.00  0.00    +0.000 C 
ATOM     22  C11 UNL     1     -52.646  64.423  -0.762  0.00  0.00    +0.000 C 
ATOM     23  C12 UNL     1     -52.491  63.406   0.384  0.00  0.00    +0.002 C 
ATOM     24  C13 UNL     1     -53.192  63.816   1.692  0.00  0.00    +0.024 C 
ENDBRANCH   9  18
ENDBRANCH   4   7
BRANCH   1  26
ATOM     25  C1  UNL     1     -48.790  59.723  10.122  0.00  0.00    +0.253 C 
ATOM     26  O1  UNL     1     -49.572  59.498   8.952  0.00  0.00    -0.468 OA
ENDBRANCH   1  26
BRANCH   6  27
ATOM     27  O3  UNL     1     -50.976  58.790   6.708  0.00  0.00    -0.472 OA
BRANCH  27  28
ATOM     28  C23 UNL     1     -51.480  58.301   5.466  0.00  0.00    +0.206 C 
BRANCH  28  29
ATOM     29  C24 UNL     1     -52.024  56.883   5.643  0.00  0.00    +0.051 C 
BRANCH  29  30
ATOM     30  C25 UNL     1     -50.882  55.866   5.778  0.00  0.00    +0.051 C 
BRANCH  30  31
ATOM     31  C26 UNL     1     -49.936  55.928   4.572  0.00  0.00    +0.206 C 
BRANCH  31  32
ATOM     32  O4  UNL     1     -48.891  56.875   4.801  0.00  0.00    -0.475 OA
BRANCH  32  33
ATOM     33  C27 UNL     1     -47.888  56.758   5.781  0.00  0.00    +0.139 A 
ATOM     34  C28 UNL     1     -47.743  57.675   6.843  0.00  0.00    +0.037 A 
ATOM     35  C29 UNL     1     -46.706  57.525   7.768  0.00  0.00    +0.006 A 
ATOM     36  C30 UNL     1     -45.807  56.451   7.663  0.00  0.00    +0.040 A 
ATOM     37  C32 UNL     1     -45.964  55.531   6.614  0.00  0.00    +0.006 A 
ATOM     38  C33 UNL     1     -46.995  55.685   5.683  0.00  0.00    +0.037 A 
BRANCH  36  39
ATOM     39  C31 UNL     1     -44.714  56.290   8.646  0.00  0.00    +0.208 A 
ATOM     40  N3  UNL     1     -43.397  56.390   8.366  0.00  0.00    -0.106 NA
ATOM     41  N4  UNL     1     -42.769  56.169   9.508  0.00  0.00    -0.021 NA
ATOM     42  N5  UNL     1     -43.653  55.944  10.463  0.00  0.00    -0.021 NA
ATOM     43  N6  UNL     1     -44.873  56.012   9.959  0.00  0.00    -0.106 NA
ENDBRANCH  36  39
ENDBRANCH  32  33
ENDBRANCH  31  32
ENDBRANCH  30  31
ENDBRANCH  29  30
ENDBRANCH  28  29
ENDBRANCH  27  28
ENDBRANCH   6  27
TORSDOF 11
ENDMDL
MODEL 3
REMARK VINA RESULT:      -7.4      1.930      4.893
REMARK  Name = ./data/4wxx_site_bc02/pdb/l1c2.pdb
REMARK  11 active torsions:
REMARK  status: ('A' for Active; 'I' for Inactive)
REMARK    1  A    between atoms: O1_2  and  C2_3
REMARK    2  A    between atoms: C5_6  and  C6_7
REMARK    3  A    between atoms: N2_9  and  C7_10
REMARK    4  A    between atoms: C22_26  and  O3_27
REMARK    5  A    between atoms: O3_27  and  C23_28
REMARK    6  A    between atoms: C23_28  and  C24_29
REMARK    7  A    between atoms: C24_29  and  C25_30
REMARK    8  A    between atoms: C25_30  and  C26_31
REMARK    9  A    between atoms: C26_31  and  O4_32
REMARK   10  A    between atoms: O4_32  and  C27_33
REMARK   11  A    between atoms: C30_36  and  C31_37
REMARK                            x       y       z     vdW  Elec       q    Type
REMARK                         _______ _______ _______ _____ _____    ______ ____
ROOT
ATOM      1  C2  UNL     1     -53.945  60.365   6.012  0.00  0.00    +0.172 A 
ATOM      2  C3  UNL     1     -53.741  59.846   4.719  0.00  0.00    +0.040 A 
ATOM      3  C4  UNL     1     -52.799  58.838   4.501  0.00  0.00    +0.005 A 
ATOM      4  C5  UNL     1     -52.060  58.320   5.572  0.00  0.00    +0.018 A 
ATOM      5  C21 UNL     1     -52.235  58.861   6.855  0.00  0.00    +0.041 A 
ATOM      6  C22 UNL     1     -53.188  59.871   7.087  0.00  0.00    +0.172 A 
ENDROOT
BRANCH   4   7
ATOM      7  C6  UNL     1     -51.086  57.230   5.378  0.00  0.00    +0.079 C 
ATOM      8  N1  UNL     1     -49.833  57.487   5.619  0.00  0.00    -0.172 NA
ATOM      9  N2  UNL     1     -48.828  56.492   5.675  0.00  0.00    -0.222 N 
ATOM     10  C14 UNL     1     -49.073  55.276   5.229  0.00  0.00    +0.253 C 
ATOM     11  O2  UNL     1     -48.108  54.269   5.300  0.00  0.00    -0.271 OA
ATOM     12  C15 UNL     1     -50.409  54.962   4.598  0.00  0.00    +0.091 C 
ATOM     13  C16 UNL     1     -50.357  55.273   3.090  0.00  0.00    +0.035 C 
ATOM     14  C17 UNL     1     -51.717  55.339   2.449  0.00  0.00    -0.030 C 
ATOM     15  C18 UNL     1     -52.840  55.549   3.150  0.00  0.00    -0.030 C 
ATOM     16  C19 UNL     1     -52.879  55.494   4.653  0.00  0.00    +0.032 C 
ATOM     17  C20 UNL     1     -51.509  55.773   5.305  0.00  0.00    +0.056 C 
BRANCH   9  18
ATOM     18  C7  UNL     1     -47.558  56.873   6.326  0.00  0.00    +0.108 C 
ATOM     19  C8  UNL     1     -46.479  55.783   6.141  0.00  0.00    +0.024 C 
ATOM     20  C9  UNL     1     -45.110  56.164   6.730  0.00  0.00    +0.002 C 
ATOM     21  C10 UNL     1     -45.088  56.055   8.265  0.00  0.00    +0.000 C 
ATOM     22  C11 UNL     1     -45.515  57.336   9.009  0.00  0.00    +0.000 C 
ATOM     23  C12 UNL     1     -46.654  58.149   8.364  0.00  0.00    +0.002 C 
ATOM     24  C13 UNL     1     -47.800  57.290   7.797  0.00  0.00    +0.024 C 
ENDBRANCH   9  18
ENDBRANCH   4   7
BRANCH   1  26
ATOM     25  C1  UNL     1     -54.812  62.703   5.793  0.00  0.00    +0.253 C 
ATOM     26  O1  UNL     1     -54.898  61.363   6.273  0.00  0.00    -0.468 OA
ENDBRANCH   1  26
BRANCH   6  27
ATOM     27  O3  UNL     1     -53.424  60.395   8.370  0.00  0.00    -0.472 OA
BRANCH  27  28
ATOM     28  C23 UNL     1     -52.701  61.477   8.954  0.00  0.00    +0.206 C 
BRANCH  28  29
ATOM     29  C24 UNL     1     -51.568  60.940   9.828  0.00  0.00    +0.051 C 
BRANCH  29  30
ATOM     30  C25 UNL     1     -50.197  61.344   9.266  0.00  0.00    +0.051 C 
BRANCH  30  31
ATOM     31  C26 UNL     1     -49.642  60.269   8.325  0.00  0.00    +0.206 C 
BRANCH  31  32
ATOM     32  O4  UNL     1     -49.731  60.697   6.964  0.00  0.00    -0.475 OA
BRANCH  32  33
ATOM     33  C27 UNL     1     -49.249  61.920   6.463  0.00  0.00    +0.139 A 
ATOM     34  C28 UNL     1     -50.024  62.777   5.656  0.00  0.00    +0.037 A 
ATOM     35  C29 UNL     1     -49.478  63.965   5.160  0.00  0.00    +0.006 A 
ATOM     36  C30 UNL     1     -48.158  64.327   5.473  0.00  0.00    +0.040 A 
ATOM     37  C32 UNL     1     -47.394  63.478   6.289  0.00  0.00    +0.006 A 
ATOM     38  C33 UNL     1     -47.935  62.287   6.778  0.00  0.00    +0.037 A 
BRANCH  36  39
ATOM     39  C31 UNL     1     -47.583  65.587   4.952  0.00  0.00    +0.208 A 
ATOM     40  N3  UNL     1     -48.029  66.253   3.866  0.00  0.00    -0.106 NA
ATOM     41  N4  UNL     1     -47.240  67.306   3.742  0.00  0.00    -0.021 NA
ATOM     42  N5  UNL     1     -46.342  67.304   4.711  0.00  0.00    -0.021 NA
ATOM     43  N6  UNL     1     -46.529  66.246   5.481  0.00  0.00    -0.106 NA
ENDBRANCH  36  39
ENDBRANCH  32  33
ENDBRANCH  31  32
ENDBRANCH  30  31
ENDBRANCH  29  30
ENDBRANCH  28  29
ENDBRANCH  27  28
ENDBRANCH   6  27
TORSDOF 11
ENDMDL
MODEL 4
REMARK VINA RESULT:      -7.4      2.757      5.060
REMARK  Name = ./data/4wxx_site_bc02/pdb/l1c2.pdb
REMARK  11 active torsions:
REMARK  status: ('A' for Active; 'I' for Inactive)
REMARK    1  A    between atoms: O1_2  and  C2_3
REMARK    2  A    between atoms: C5_6  and  C6_7
REMARK    3  A    between atoms: N2_9  and  C7_10
REMARK    4  A    between atoms: C22_26  and  O3_27
REMARK    5  A    between atoms: O3_27  and  C23_28
REMARK    6  A    between atoms: C23_28  and  C24_29
REMARK    7  A    between atoms: C24_29  and  C25_30
REMARK    8  A    between atoms: C25_30  and  C26_31
REMARK    9  A    between atoms: C26_31  and  O4_32
REMARK   10  A    between atoms: O4_32  and  C27_33
REMARK   11  A    between atoms: C30_36  and  C31_37
REMARK                            x       y       z     vdW  Elec       q    Type
REMARK                         _______ _______ _______ _____ _____    ______ ____
ROOT
ATOM      1  C2  UNL     1     -53.867  60.508   6.440  0.00  0.00    +0.172 A 
ATOM      2  C3  UNL     1     -54.071  59.237   7.011  0.00  0.00    +0.040 A 
ATOM      3  C4  UNL     1     -53.200  58.184   6.725  0.00  0.00    +0.005 A 
ATOM      4  C5  UNL     1     -52.102  58.387   5.879  0.00  0.00    +0.018 A 
ATOM      5  C21 UNL     1     -51.917  59.642   5.279  0.00  0.00    +0.041 A 
ATOM      6  C22 UNL     1     -52.784  60.712   5.568  0.00  0.00    +0.172 A 
ENDROOT
BRANCH   4   7
ATOM      7  C6  UNL     1     -51.144  57.304   5.589  0.00  0.00    +0.079 C 
ATOM      8  N1  UNL     1     -49.880  57.542   5.790  0.00  0.00    -0.172 NA
ATOM      9  N2  UNL     1     -48.881  56.540   5.752  0.00  0.00    -0.222 N 
ATOM     10  C14 UNL     1     -49.153  55.350   5.255  0.00  0.00    +0.253 C 
ATOM     11  O2  UNL     1     -48.194  54.336   5.233  0.00  0.00    -0.271 OA
ATOM     12  C15 UNL     1     -50.516  55.076   4.666  0.00  0.00    +0.091 C 
ATOM     13  C16 UNL     1     -50.526  55.463   3.174  0.00  0.00    +0.035 C 
ATOM     14  C17 UNL     1     -51.911  55.569   2.596  0.00  0.00    -0.030 C 
ATOM     15  C18 UNL     1     -53.002  55.748   3.353  0.00  0.00    -0.030 C 
ATOM     16  C19 UNL     1     -52.978  55.616   4.852  0.00  0.00    +0.032 C 
ATOM     17  C20 UNL     1     -51.580  55.855   5.459  0.00  0.00    +0.056 C 
BRANCH   9  18
ATOM     18  C7  UNL     1     -47.582  56.882   6.367  0.00  0.00    +0.108 C 
ATOM     19  C8  UNL     1     -46.539  55.765   6.139  0.00  0.00    +0.024 C 
ATOM     20  C9  UNL     1     -45.142  56.105   6.690  0.00  0.00    +0.002 C 
ATOM     21  C10 UNL     1     -45.077  55.978   8.222  0.00  0.00    +0.000 C 
ATOM     22  C11 UNL     1     -45.447  57.262   8.991  0.00  0.00    +0.000 C 
ATOM     23  C12 UNL     1     -46.583  58.111   8.389  0.00  0.00    +0.002 C 
ATOM     24  C13 UNL     1     -47.768  57.289   7.849  0.00  0.00    +0.024 C 
ENDBRANCH   9  18
ENDBRANCH   4   7
BRANCH   1  26
ATOM     25  C1  UNL     1     -54.444  62.583   7.715  0.00  0.00    +0.253 C 
ATOM     26  O1  UNL     1     -54.709  61.596   6.721  0.00  0.00    -0.468 OA
ENDBRANCH   1  26
BRANCH   6  27
ATOM     27  O3  UNL     1     -52.594  61.995   5.025  0.00  0.00    -0.472 OA
BRANCH  27  28
ATOM     28  C23 UNL     1     -53.367  62.554   3.964  0.00  0.00    +0.206 C 
BRANCH  28  29
ATOM     29  C24 UNL     1     -52.457  63.308   2.994  0.00  0.00    +0.051 C 
BRANCH  29  30
ATOM     30  C25 UNL     1     -52.090  64.694   3.544  0.00  0.00    +0.051 C 
BRANCH  30  31
ATOM     31  C26 UNL     1     -50.703  65.135   3.061  0.00  0.00    +0.206 C 
BRANCH  31  32
ATOM     32  O4  UNL     1     -49.761  65.100   4.135  0.00  0.00    -0.475 OA
BRANCH  32  33
ATOM     33  C27 UNL     1     -49.760  64.165   5.186  0.00  0.00    +0.139 A 
ATOM     34  C28 UNL     1     -49.089  62.928   5.111  0.00  0.00    +0.037 A 
ATOM     35  C29 UNL     1     -49.152  62.025   6.176  0.00  0.00    +0.006 A 
ATOM     36  C30 UNL     1     -49.868  62.345   7.340  0.00  0.00    +0.040 A 
ATOM     37  C32 UNL     1     -50.523  63.585   7.418  0.00  0.00    +0.006 A 
ATOM     38  C33 UNL     1     -50.469  64.484   6.351  0.00  0.00    +0.037 A 
BRANCH  36  39
ATOM     39  C31 UNL     1     -49.930  61.391   8.469  0.00  0.00    +0.208 A 
ATOM     40  N3  UNL     1     -48.898  60.639   8.907  0.00  0.00    -0.106 NA
ATOM     41  N4  UNL     1     -49.376  59.926   9.913  0.00  0.00    -0.021 NA
ATOM     42  N5  UNL     1     -50.649  60.221  10.101  0.00  0.00    -0.021 NA
ATOM     43  N6  UNL     1     -51.025  61.130   9.217  0.00  0.00    -0.106 NA
ENDBRANCH  36  39
ENDBRANCH  32  33
ENDBRANCH  31  32
ENDBRANCH  30  31
ENDBRANCH  29  30
ENDBRANCH  28  29
ENDBRANCH  27  28
ENDBRANCH   6  27
TORSDOF 11
ENDMDL
MODEL 5
REMARK VINA RESULT:      -6.9      2.923      7.634
REMARK  Name = ./data/4wxx_site_bc02/pdb/l1c2.pdb
REMARK  11 active torsions:
REMARK  status: ('A' for Active; 'I' for Inactive)
REMARK    1  A    between atoms: O1_2  and  C2_3
REMARK    2  A    between atoms: C5_6  and  C6_7
REMARK    3  A    between atoms: N2_9  and  C7_10
REMARK    4  A    between atoms: C22_26  and  O3_27
REMARK    5  A    between atoms: O3_27  and  C23_28
REMARK    6  A    between atoms: C23_28  and  C24_29
REMARK    7  A    between atoms: C24_29  and  C25_30
REMARK    8  A    between atoms: C25_30  and  C26_31
REMARK    9  A    between atoms: C26_31  and  O4_32
REMARK   10  A    between atoms: O4_32  and  C27_33
REMARK   11  A    between atoms: C30_36  and  C31_37
REMARK                            x       y       z     vdW  Elec       q    Type
REMARK                         _______ _______ _______ _____ _____    ______ ____
ROOT
ATOM      1  C2  UNL     1     -49.312  56.819   5.577  0.00  0.00    +0.172 A 
ATOM      2  C3  UNL     1     -48.317  57.569   6.234  0.00  0.00    +0.040 A 
ATOM      3  C4  UNL     1     -48.512  58.926   6.498  0.00  0.00    +0.005 A 
ATOM      4  C5  UNL     1     -49.710  59.551   6.128  0.00  0.00    +0.018 A 
ATOM      5  C21 UNL     1     -50.687  58.816   5.439  0.00  0.00    +0.041 A 
ATOM      6  C22 UNL     1     -50.504  57.445   5.176  0.00  0.00    +0.172 A 
ENDROOT
BRANCH   4   7
ATOM      7  C6  UNL     1     -49.959  60.974   6.427  0.00  0.00    +0.079 C 
ATOM      8  N1  UNL     1     -49.018  61.827   6.143  0.00  0.00    -0.172 NA
ATOM      9  N2  UNL     1     -49.197  63.230   6.184  0.00  0.00    -0.222 N 
ATOM     10  C14 UNL     1     -50.262  63.746   6.764  0.00  0.00    +0.253 C 
ATOM     11  O2  UNL     1     -50.476  65.125   6.791  0.00  0.00    -0.271 OA
ATOM     12  C15 UNL     1     -51.261  62.840   7.442  0.00  0.00    +0.091 C 
ATOM     13  C16 UNL     1     -50.842  62.608   8.907  0.00  0.00    +0.035 C 
ATOM     14  C17 UNL     1     -51.555  61.452   9.555  0.00  0.00    -0.030 C 
ATOM     15  C18 UNL     1     -52.138  60.473   8.849  0.00  0.00    -0.030 C 
ATOM     16  C19 UNL     1     -52.348  60.559   7.362  0.00  0.00    +0.032 C 
ATOM     17  C20 UNL     1     -51.357  61.515   6.666  0.00  0.00    +0.056 C 
BRANCH   9  18
ATOM     18  C7  UNL     1     -48.185  64.045   5.479  0.00  0.00    +0.108 C 
ATOM     19  C8  UNL     1     -47.094  64.552   6.448  0.00  0.00    +0.024 C 
ATOM     20  C9  UNL     1     -45.970  65.339   5.752  0.00  0.00    +0.002 C 
ATOM     21  C10 UNL     1     -46.414  66.761   5.362  0.00  0.00    +0.000 C 
ATOM     22  C11 UNL     1     -47.054  66.875   3.964  0.00  0.00    +0.000 C 
ATOM     23  C12 UNL     1     -47.950  65.699   3.529  0.00  0.00    +0.002 C 
ATOM     24  C13 UNL     1     -48.865  65.156   4.643  0.00  0.00    +0.024 C 
ENDBRANCH   9  18
ENDBRANCH   4   7
BRANCH   1  26
ATOM     25  C1  UNL     1     -48.309  54.912   4.303  0.00  0.00    +0.253 C 
ATOM     26  O1  UNL     1     -49.160  55.447   5.313  0.00  0.00    -0.468 OA
ENDBRANCH   1  26
BRANCH   6  27
ATOM     27  O3  UNL     1     -51.487  56.669   4.537  0.00  0.00    -0.472 OA
BRANCH  27  28
ATOM     28  C23 UNL     1     -52.682  56.196   5.156  0.00  0.00    +0.206 C 
BRANCH  28  29
ATOM     29  C24 UNL     1     -53.387  57.343   5.880  0.00  0.00    +0.051 C 
BRANCH  29  30
ATOM     30  C25 UNL     1     -54.647  57.784   5.121  0.00  0.00    +0.051 C 
BRANCH  30  31
ATOM     31  C26 UNL     1     -54.902  59.287   5.291  0.00  0.00    +0.206 C 
BRANCH  31  32
ATOM     32  O4  UNL     1     -54.067  60.042   4.410  0.00  0.00    -0.475 OA
BRANCH  32  33
ATOM     33  C27 UNL     1     -54.143  61.432   4.212  0.00  0.00    +0.139 A 
ATOM     34  C28 UNL     1     -53.678  62.066   3.042  0.00  0.00    +0.037 A 
ATOM     35  C29 UNL     1     -53.750  63.457   2.915  0.00  0.00    +0.006 A 
ATOM     36  C30 UNL     1     -54.302  64.238   3.944  0.00  0.00    +0.040 A 
ATOM     37  C32 UNL     1     -54.778  63.601   5.102  0.00  0.00    +0.006 A 
ATOM     38  C33 UNL     1     -54.699  62.213   5.232  0.00  0.00    +0.037 A 
BRANCH  36  39
ATOM     39  C31 UNL     1     -54.383  65.708   3.807  0.00  0.00    +0.208 A 
ATOM     40  N3  UNL     1     -54.608  66.571   4.821  0.00  0.00    -0.106 NA
ATOM     41  N4  UNL     1     -54.615  67.774   4.273  0.00  0.00    -0.021 NA
ATOM     42  N5  UNL     1     -54.400  67.671   2.974  0.00  0.00    -0.021 NA
ATOM     43  N6  UNL     1     -54.251  66.398   2.652  0.00  0.00    -0.106 NA
ENDBRANCH  36  39
ENDBRANCH  32  33
ENDBRANCH  31  32
ENDBRANCH  30  31
ENDBRANCH  29  30
ENDBRANCH  28  29
ENDBRANCH  27  28
ENDBRANCH   6  27
TORSDOF 11
ENDMDL
MODEL 6
REMARK VINA RESULT:      -6.9      3.486      6.080
REMARK  Name = ./data/4wxx_site_bc02/pdb/l1c2.pdb
REMARK  11 active torsions:
REMARK  status: ('A' for Active; 'I' for Inactive)
REMARK    1  A    between atoms: O1_2  and  C2_3
REMARK    2  A    between atoms: C5_6  and  C6_7
REMARK    3  A    between atoms: N2_9  and  C7_10
REMARK    4  A    between atoms: C22_26  and  O3_27
REMARK    5  A    between atoms: O3_27  and  C23_28
REMARK    6  A    between atoms: C23_28  and  C24_29
REMARK    7  A    between atoms: C24_29  and  C25_30
REMARK    8  A    between atoms: C25_30  and  C26_31
REMARK    9  A    between atoms: C26_31  and  O4_32
REMARK   10  A    between atoms: O4_32  and  C27_33
REMARK   11  A    between atoms: C30_36  and  C31_37
REMARK                            x       y       z     vdW  Elec       q    Type
REMARK                         _______ _______ _______ _____ _____    ______ ____
ROOT
ATOM      1  C2  UNL     1     -49.637  61.507   6.355  0.00  0.00    +0.172 A 
ATOM      2  C3  UNL     1     -48.279  61.211   6.124  0.00  0.00    +0.040 A 
ATOM      3  C4  UNL     1     -47.845  59.885   6.060  0.00  0.00    +0.005 A 
ATOM      4  C5  UNL     1     -48.760  58.835   6.208  0.00  0.00    +0.018 A 
ATOM      5  C21 UNL     1     -50.107  59.127   6.475  0.00  0.00    +0.041 A 
ATOM      6  C22 UNL     1     -50.556  60.460   6.532  0.00  0.00    +0.172 A 
ENDROOT
BRANCH   4   7
ATOM      7  C6  UNL     1     -48.336  57.426   6.108  0.00  0.00    +0.079 C 
ATOM      8  N1  UNL     1     -47.080  57.155   6.316  0.00  0.00    -0.172 NA
ATOM      9  N2  UNL     1     -46.578  55.839   6.456  0.00  0.00    -0.222 N 
ATOM     10  C14 UNL     1     -47.325  54.806   6.125  0.00  0.00    +0.253 C 
ATOM     11  O2  UNL     1     -46.863  53.497   6.282  0.00  0.00    -0.271 OA
ATOM     12  C15 UNL     1     -48.697  55.029   5.536  0.00  0.00    +0.091 C 
ATOM     13  C16 UNL     1     -48.589  55.166   4.004  0.00  0.00    +0.035 C 
ATOM     14  C17 UNL     1     -49.825  55.742   3.369  0.00  0.00    -0.030 C 
ATOM     15  C18 UNL     1     -50.727  56.458   4.056  0.00  0.00    -0.030 C 
ATOM     16  C19 UNL     1     -50.719  56.546   5.558  0.00  0.00    +0.032 C 
ATOM     17  C20 UNL     1     -49.329  56.279   6.172  0.00  0.00    +0.056 C 
BRANCH   9  18
ATOM     18  C7  UNL     1     -45.236  55.707   7.060  0.00  0.00    +0.108 C 
ATOM     19  C8  UNL     1     -45.315  55.633   8.601  0.00  0.00    +0.024 C 
ATOM     20  C9  UNL     1     -43.951  55.414   9.279  0.00  0.00    +0.002 C 
ATOM     21  C10 UNL     1     -43.098  56.694   9.293  0.00  0.00    +0.000 C 
ATOM     22  C11 UNL     1     -42.201  56.884   8.054  0.00  0.00    +0.000 C 
ATOM     23  C12 UNL     1     -42.798  56.435   6.707  0.00  0.00    +0.002 C 
ATOM     24  C13 UNL     1     -44.283  56.801   6.521  0.00  0.00    +0.024 C 
ENDBRANCH   9  18
ENDBRANCH   4   7
BRANCH   1  26
ATOM     25  C1  UNL     1     -49.284  63.978   6.541  0.00  0.00    +0.253 C 
ATOM     26  O1  UNL     1     -50.114  62.827   6.404  0.00  0.00    -0.468 OA
ENDBRANCH   1  26
BRANCH   6  27
ATOM     27  O3  UNL     1     -51.908  60.784   6.744  0.00  0.00    -0.472 OA
BRANCH  27  28
ATOM     28  C23 UNL     1     -52.591  60.657   7.990  0.00  0.00    +0.206 C 
BRANCH  28  29
ATOM     29  C24 UNL     1     -52.240  61.833   8.902  0.00  0.00    +0.051 C 
BRANCH  29  30
ATOM     30  C25 UNL     1     -53.403  62.834   8.985  0.00  0.00    +0.051 C 
BRANCH  30  31
ATOM     31  C26 UNL     1     -53.458  63.726   7.739  0.00  0.00    +0.206 C 
BRANCH  31  32
ATOM     32  O4  UNL     1     -54.334  63.167   6.758  0.00  0.00    -0.475 OA
BRANCH  32  33
ATOM     33  C27 UNL     1     -54.068  63.090   5.379  0.00  0.00    +0.139 A 
ATOM     34  C28 UNL     1     -54.836  62.310   4.491  0.00  0.00    +0.037 A 
ATOM     35  C29 UNL     1     -54.503  62.248   3.135  0.00  0.00    +0.006 A 
ATOM     36  C30 UNL     1     -53.410  62.975   2.637  0.00  0.00    +0.040 A 
ATOM     37  C32 UNL     1     -52.655  63.763   3.521  0.00  0.00    +0.006 A 
ATOM     38  C33 UNL     1     -52.982  63.819   4.878  0.00  0.00    +0.037 A 
BRANCH  36  39
ATOM     39  C31 UNL     1     -53.060  62.913   1.201  0.00  0.00    +0.208 A 
ATOM     40  N3  UNL     1     -52.702  63.970   0.443  0.00  0.00    -0.106 NA
ATOM     41  N4  UNL     1     -52.488  63.487  -0.769  0.00  0.00    -0.021 NA
ATOM     42  N5  UNL     1     -52.699  62.184  -0.771  0.00  0.00    -0.021 NA
ATOM     43  N6  UNL     1     -53.057  61.795   0.441  0.00  0.00    -0.106 NA
ENDBRANCH  36  39
ENDBRANCH  32  33
ENDBRANCH  31  32
ENDBRANCH  30  31
ENDBRANCH  29  30
ENDBRANCH  28  29
ENDBRANCH  27  28
ENDBRANCH   6  27
TORSDOF 11
ENDMDL
MODEL 7
REMARK VINA RESULT:      -6.8      1.850      2.852
REMARK  Name = ./data/4wxx_site_bc02/pdb/l1c2.pdb
REMARK  11 active torsions:
REMARK  status: ('A' for Active; 'I' for Inactive)
REMARK    1  A    between atoms: O1_2  and  C2_3
REMARK    2  A    between atoms: C5_6  and  C6_7
REMARK    3  A    between atoms: N2_9  and  C7_10
REMARK    4  A    between atoms: C22_26  and  O3_27
REMARK    5  A    between atoms: O3_27  and  C23_28
REMARK    6  A    between atoms: C23_28  and  C24_29
REMARK    7  A    between atoms: C24_29  and  C25_30
REMARK    8  A    between atoms: C25_30  and  C26_31
REMARK    9  A    between atoms: C26_31  and  O4_32
REMARK   10  A    between atoms: O4_32  and  C27_33
REMARK   11  A    between atoms: C30_36  and  C31_37
REMARK                            x       y       z     vdW  Elec       q    Type
REMARK                         _______ _______ _______ _____ _____    ______ ____
ROOT
ATOM      1  C2  UNL     1     -53.369  61.249   5.787  0.00  0.00    +0.172 A 
ATOM      2  C3  UNL     1     -52.269  61.257   4.907  0.00  0.00    +0.040 A 
ATOM      3  C4  UNL     1     -51.096  60.574   5.234  0.00  0.00    +0.005 A 
ATOM      4  C5  UNL     1     -51.008  59.858   6.436  0.00  0.00    +0.018 A 
ATOM      5  C21 UNL     1     -52.088  59.880   7.332  0.00  0.00    +0.041 A 
ATOM      6  C22 UNL     1     -53.278  60.558   7.007  0.00  0.00    +0.172 A 
ENDROOT
BRANCH   4   7
ATOM      7  C6  UNL     1     -49.795  59.097   6.790  0.00  0.00    +0.079 C 
ATOM      8  N1  UNL     1     -49.679  57.889   6.320  0.00  0.00    -0.172 NA
ATOM      9  N2  UNL     1     -48.489  57.129   6.407  0.00  0.00    -0.222 N 
ATOM     10  C14 UNL     1     -47.511  57.516   7.201  0.00  0.00    +0.253 C 
ATOM     11  O2  UNL     1     -46.315  56.799   7.282  0.00  0.00    -0.271 OA
ATOM     12  C15 UNL     1     -47.687  58.739   8.068  0.00  0.00    +0.091 C 
ATOM     13  C16 UNL     1     -48.328  58.336   9.411  0.00  0.00    +0.035 C 
ATOM     14  C17 UNL     1     -48.870  59.507  10.186  0.00  0.00    -0.030 C 
ATOM     15  C18 UNL     1     -49.169  60.681   9.613  0.00  0.00    -0.030 C 
ATOM     16  C19 UNL     1     -48.766  61.020   8.204  0.00  0.00    +0.032 C 
ATOM     17  C20 UNL     1     -48.544  59.775   7.321  0.00  0.00    +0.056 C 
BRANCH   9  18
ATOM     18  C7  UNL     1     -48.387  55.958   5.510  0.00  0.00    +0.108 C 
ATOM     19  C8  UNL     1     -48.576  56.362   4.031  0.00  0.00    +0.024 C 
ATOM     20  C9  UNL     1     -48.400  55.194   3.046  0.00  0.00    +0.002 C 
ATOM     21  C10 UNL     1     -49.617  54.252   3.039  0.00  0.00    +0.000 C 
ATOM     22  C11 UNL     1     -49.549  53.104   4.066  0.00  0.00    +0.000 C 
ATOM     23  C12 UNL     1     -48.915  53.446   5.427  0.00  0.00    +0.002 C 
ATOM     24  C13 UNL     1     -49.324  54.821   5.986  0.00  0.00    +0.024 C 
ENDBRANCH   9  18
ENDBRANCH   4   7
BRANCH   1  26
ATOM     25  C1  UNL     1     -54.902  62.426   4.197  0.00  0.00    +0.253 C 
ATOM     26  O1  UNL     1     -54.572  61.906   5.482  0.00  0.00    -0.468 OA
ENDBRANCH   1  26
BRANCH   6  27
ATOM     27  O3  UNL     1     -54.397  60.553   7.859  0.00  0.00    -0.472 OA
BRANCH  27  28
ATOM     28  C23 UNL     1     -54.655  61.525   8.870  0.00  0.00    +0.206 C 
BRANCH  28  29
ATOM     29  C24 UNL     1     -53.618  62.645   8.799  0.00  0.00    +0.051 C 
BRANCH  29  30
ATOM     30  C25 UNL     1     -54.291  64.010   8.599  0.00  0.00    +0.051 C 
BRANCH  30  31
ATOM     31  C26 UNL     1     -53.718  64.740   7.378  0.00  0.00    +0.206 C 
BRANCH  31  32
ATOM     32  O4  UNL     1     -52.739  63.932   6.722  0.00  0.00    -0.475 OA
BRANCH  32  33
ATOM     33  C27 UNL     1     -51.416  64.320   6.447  0.00  0.00    +0.139 A 
ATOM     34  C28 UNL     1     -50.390  64.289   7.414  0.00  0.00    +0.037 A 
ATOM     35  C29 UNL     1     -49.100  64.719   7.091  0.00  0.00    +0.006 A 
ATOM     36  C30 UNL     1     -48.805  65.171   5.794  0.00  0.00    +0.040 A 
ATOM     37  C32 UNL     1     -49.824  65.186   4.829  0.00  0.00    +0.006 A 
ATOM     38  C33 UNL     1     -51.116  64.765   5.154  0.00  0.00    +0.037 A 
BRANCH  36  39
ATOM     39  C31 UNL     1     -47.438  65.621   5.451  0.00  0.00    +0.208 A 
ATOM     40  N3  UNL     1     -47.119  66.394   4.391  0.00  0.00    -0.106 NA
ATOM     41  N4  UNL     1     -45.807  66.550   4.444  0.00  0.00    -0.021 NA
ATOM     42  N5  UNL     1     -45.325  65.908   5.492  0.00  0.00    -0.021 NA
ATOM     43  N6  UNL     1     -46.316  65.318   6.140  0.00  0.00    -0.106 NA
ENDBRANCH  36  39
ENDBRANCH  32  33
ENDBRANCH  31  32
ENDBRANCH  30  31
ENDBRANCH  29  30
ENDBRANCH  28  29
ENDBRANCH  27  28
ENDBRANCH   6  27
TORSDOF 11
ENDMDL
MODEL 8
REMARK VINA RESULT:      -6.5      3.112      5.524
REMARK  Name = ./data/4wxx_site_bc02/pdb/l1c2.pdb
REMARK  11 active torsions:
REMARK  status: ('A' for Active; 'I' for Inactive)
REMARK    1  A    between atoms: O1_2  and  C2_3
REMARK    2  A    between atoms: C5_6  and  C6_7
REMARK    3  A    between atoms: N2_9  and  C7_10
REMARK    4  A    between atoms: C22_26  and  O3_27
REMARK    5  A    between atoms: O3_27  and  C23_28
REMARK    6  A    between atoms: C23_28  and  C24_29
REMARK    7  A    between atoms: C24_29  and  C25_30
REMARK    8  A    between atoms: C25_30  and  C26_31
REMARK    9  A    between atoms: C26_31  and  O4_32
REMARK   10  A    between atoms: O4_32  and  C27_33
REMARK   11  A    between atoms: C30_36  and  C31_37
REMARK                            x       y       z     vdW  Elec       q    Type
REMARK                         _______ _______ _______ _____ _____    ______ ____
ROOT
ATOM      1  C2  UNL     1     -50.100  61.301   6.707  0.00  0.00    +0.172 A 
ATOM      2  C3  UNL     1     -48.771  61.080   6.296  0.00  0.00    +0.040 A 
ATOM      3  C4  UNL     1     -48.288  59.780   6.130  0.00  0.00    +0.005 A 
ATOM      4  C5  UNL     1     -49.127  58.682   6.356  0.00  0.00    +0.018 A 
ATOM      5  C21 UNL     1     -50.440  58.898   6.802  0.00  0.00    +0.041 A 
ATOM      6  C22 UNL     1     -50.940  60.204   6.963  0.00  0.00    +0.172 A 
ENDROOT
BRANCH   4   7
ATOM      7  C6  UNL     1     -48.655  57.299   6.153  0.00  0.00    +0.079 C 
ATOM      8  N1  UNL     1     -47.399  57.048   6.384  0.00  0.00    -0.172 NA
ATOM      9  N2  UNL     1     -46.860  55.740   6.431  0.00  0.00    -0.222 N 
ATOM     10  C14 UNL     1     -47.562  54.717   5.986  0.00  0.00    +0.253 C 
ATOM     11  O2  UNL     1     -47.064  53.414   6.049  0.00  0.00    -0.271 OA
ATOM     12  C15 UNL     1     -48.920  54.950   5.368  0.00  0.00    +0.091 C 
ATOM     13  C16 UNL     1     -48.763  55.221   3.858  0.00  0.00    +0.035 C 
ATOM     14  C17 UNL     1     -49.995  55.812   3.229  0.00  0.00    -0.030 C 
ATOM     15  C18 UNL     1     -50.942  56.440   3.940  0.00  0.00    -0.030 C 
ATOM     16  C19 UNL     1     -50.988  56.400   5.443  0.00  0.00    +0.032 C 
ATOM     17  C20 UNL     1     -49.612  56.122   6.083  0.00  0.00    +0.056 C 
BRANCH   9  18
ATOM     18  C7  UNL     1     -45.536  55.596   7.070  0.00  0.00    +0.108 C 
ATOM     19  C8  UNL     1     -45.583  55.995   8.562  0.00  0.00    +0.024 C 
ATOM     20  C9  UNL     1     -44.248  55.787   9.298  0.00  0.00    +0.002 C 
ATOM     21  C10 UNL     1     -43.216  56.873   8.946  0.00  0.00    +0.000 C 
ATOM     22  C11 UNL     1     -42.335  56.551   7.722  0.00  0.00    +0.000 C 
ATOM     23  C12 UNL     1     -43.029  55.817   6.559  0.00  0.00    +0.002 C 
ATOM     24  C13 UNL     1     -44.448  56.327   6.247  0.00  0.00    +0.024 C 
ENDBRANCH   9  18
ENDBRANCH   4   7
BRANCH   1  26
ATOM     25  C1  UNL     1     -51.049  63.426   5.785  0.00  0.00    +0.253 C 
ATOM     26  O1  UNL     1     -50.627  62.593   6.863  0.00  0.00    -0.468 OA
ENDBRANCH   1  26
BRANCH   6  27
ATOM     27  O3  UNL     1     -52.266  60.453   7.356  0.00  0.00    -0.472 OA
BRANCH  27  28
ATOM     28  C23 UNL     1     -53.345  59.531   7.216  0.00  0.00    +0.206 C 
BRANCH  28  29
ATOM     29  C24 UNL     1     -54.639  60.281   6.903  0.00  0.00    +0.051 C 
BRANCH  29  30
ATOM     30  C25 UNL     1     -54.397  61.397   5.876  0.00  0.00    +0.051 C 
BRANCH  30  31
ATOM     31  C26 UNL     1     -54.076  60.819   4.492  0.00  0.00    +0.206 C 
BRANCH  31  32
ATOM     32  O4  UNL     1     -54.641  61.634   3.463  0.00  0.00    -0.475 OA
BRANCH  32  33
ATOM     33  C27 UNL     1     -53.956  62.635   2.751  0.00  0.00    +0.139 A 
ATOM     34  C28 UNL     1     -53.407  62.426   1.469  0.00  0.00    +0.037 A 
ATOM     35  C29 UNL     1     -52.708  63.451   0.825  0.00  0.00    +0.006 A 
ATOM     36  C30 UNL     1     -52.558  64.706   1.437  0.00  0.00    +0.040 A 
ATOM     37  C32 UNL     1     -53.120  64.915   2.707  0.00  0.00    +0.006 A 
ATOM     38  C33 UNL     1     -53.811  63.889   3.356  0.00  0.00    +0.037 A 
BRANCH  36  39
ATOM     39  C31 UNL     1     -51.823  65.791   0.752  0.00  0.00    +0.208 A 
ATOM     40  N3  UNL     1     -51.726  65.939  -0.586  0.00  0.00    -0.106 NA
ATOM     41  N4  UNL     1     -50.982  67.015  -0.775  0.00  0.00    -0.021 NA
ATOM     42  N5  UNL     1     -50.632  67.523   0.393  0.00  0.00    -0.021 NA
ATOM     43  N6  UNL     1     -51.139  66.783   1.364  0.00  0.00    -0.106 NA
ENDBRANCH  36  39
ENDBRANCH  32  33
ENDBRANCH  31  32
ENDBRANCH  30  31
ENDBRANCH  29  30
ENDBRANCH  28  29
ENDBRANCH  27  28
ENDBRANCH   6  27
TORSDOF 11
ENDMDL
