MODEL 1
REMARK VINA RESULT:      -6.0      0.000      0.000
REMARK  Name = ./data/4wxx_site_bc02/pdb/l0c0.pdb
REMARK  11 active torsions:
REMARK  status: ('A' for Active; 'I' for Inactive)
REMARK    1  A    between atoms: O1_2  and  C2_3
REMARK    2  A    between atoms: C5_6  and  C6_7
REMARK    3  A    between atoms: N2_9  and  C7_10
REMARK    4  A    between atoms: C19_23  and  O3_24
REMARK    5  A    between atoms: O3_24  and  C20_25
REMARK    6  A    between atoms: C20_25  and  C21_26
REMARK    7  A    between atoms: C21_26  and  C22_27
REMARK    8  A    between atoms: C22_27  and  C23_28
REMARK    9  A    between atoms: C23_28  and  O4_29
REMARK   10  A    between atoms: O4_29  and  C24_30
REMARK   11  A    between atoms: C27_33  and  C28_34
REMARK                            x       y       z     vdW  Elec       q    Type
REMARK                         _______ _______ _______ _____ _____    ______ ____
ROOT
ATOM      1  C2  UNL     1     -52.491  42.954 -17.941  0.00  0.00    +0.172 A 
ATOM      2  C3  UNL     1     -53.769  43.182 -18.484  0.00  0.00    +0.040 A 
ATOM      3  C4  UNL     1     -54.054  44.370 -19.161  0.00  0.00    +0.005 A 
ATOM      4  C5  UNL     1     -53.070  45.362 -19.310  0.00  0.00    +0.019 A 
ATOM      5  C18 UNL     1     -51.802  45.138 -18.742  0.00  0.00    +0.041 A 
ATOM      6  C19 UNL     1     -51.498  43.933 -18.079  0.00  0.00    +0.172 A 
ENDROOT
BRANCH   4   7
ATOM      7  C6  UNL     1     -53.306  46.627 -20.066  0.00  0.00    +0.086 C 
ATOM      8  N1  UNL     1     -54.506  46.983 -20.400  0.00  0.00    -0.171 NA
ATOM      9  N2  UNL     1     -54.480  48.209 -21.061  0.00  0.00    -0.222 N 
ATOM     10  C14 UNL     1     -53.265  48.635 -21.156  0.00  0.00    +0.257 C 
ATOM     11  O2  UNL     1     -52.920  49.836 -21.774  0.00  0.00    -0.270 OA
ATOM     12  C15 UNL     1     -52.299  47.678 -20.511  0.00  0.00    +0.110 C 
ATOM     13  C16 UNL     1     -51.310  47.145 -21.559  0.00  0.00    +0.015 C 
ATOM     14  C17 UNL     1     -51.602  48.372 -19.326  0.00  0.00    +0.015 C 
BRANCH   9  15
ATOM     15  C7  UNL     1     -55.693  48.891 -21.531  0.00  0.00    +0.108 C 
ATOM     16  C8  UNL     1     -56.889  47.915 -21.457  0.00  0.00    +0.024 C 
ATOM     17  C9  UNL     1     -58.263  48.594 -21.597  0.00  0.00    +0.002 C 
ATOM     18  C10 UNL     1     -58.839  49.020 -20.237  0.00  0.00    +0.000 C 
ATOM     19  C11 UNL     1     -58.170  50.266 -19.643  0.00  0.00    +0.000 C 
ATOM     20  C12 UNL     1     -56.655  50.116 -19.439  0.00  0.00    +0.002 C 
ATOM     21  C13 UNL     1     -55.875  50.223 -20.763  0.00  0.00    +0.024 C 
ENDBRANCH   9  15
ENDBRANCH   4   7
BRANCH   1  23
ATOM     22  C1  UNL     1     -53.087  41.021 -16.466  0.00  0.00    +0.253 C 
ATOM     23  O1  UNL     1     -52.170  41.770 -17.259  0.00  0.00    -0.468 OA
ENDBRANCH   1  23
BRANCH   6  24
ATOM     24  O3  UNL     1     -50.222  43.672 -17.547  0.00  0.00    -0.472 OA
BRANCH  24  25
ATOM     25  C20 UNL     1     -49.502  44.534 -16.663  0.00  0.00    +0.206 C 
BRANCH  25  26
ATOM     26  C21 UNL     1     -49.767  46.009 -16.995  0.00  0.00    +0.051 C 
BRANCH  26  27
ATOM     27  C22 UNL     1     -50.203  46.780 -15.744  0.00  0.00    +0.051 C 
BRANCH  27  28
ATOM     28  C23 UNL     1     -51.702  47.093 -15.782  0.00  0.00    +0.206 C 
BRANCH  28  29
ATOM     29  O4  UNL     1     -52.413  46.245 -14.879  0.00  0.00    -0.475 OA
BRANCH  29  30
ATOM     30  C24 UNL     1     -51.821  45.348 -13.974  0.00  0.00    +0.139 A 
ATOM     31  C25 UNL     1     -51.662  43.977 -14.253  0.00  0.00    +0.037 A 
ATOM     32  C26 UNL     1     -51.067  43.128 -13.315  0.00  0.00    +0.006 A 
ATOM     33  C27 UNL     1     -50.614  43.630 -12.082  0.00  0.00    +0.040 A 
ATOM     34  C29 UNL     1     -50.769  45.000 -11.810  0.00  0.00    +0.006 A 
ATOM     35  C30 UNL     1     -51.367  45.847 -12.749  0.00  0.00    +0.037 A 
BRANCH  33  36
ATOM     36  C28 UNL     1     -49.981  42.729 -11.088  0.00  0.00    +0.208 A 
ATOM     37  N3  UNL     1     -50.202  41.399 -10.987  0.00  0.00    -0.106 NA
ATOM     38  N4  UNL     1     -49.454  40.987  -9.977  0.00  0.00    -0.021 NA
ATOM     39  N5  UNL     1     -48.791  42.012  -9.471  0.00  0.00    -0.021 NA
ATOM     40  N6  UNL     1     -49.097  43.111 -10.140  0.00  0.00    -0.106 NA
ENDBRANCH  33  36
ENDBRANCH  29  30
ENDBRANCH  28  29
ENDBRANCH  27  28
ENDBRANCH  26  27
ENDBRANCH  25  26
ENDBRANCH  24  25
ENDBRANCH   6  24
TORSDOF 11
ENDMDL
MODEL 2
REMARK VINA RESULT:      -5.6      3.396      5.347
REMARK  Name = ./data/4wxx_site_bc02/pdb/l0c0.pdb
REMARK  11 active torsions:
REMARK  status: ('A' for Active; 'I' for Inactive)
REMARK    1  A    between atoms: O1_2  and  C2_3
REMARK    2  A    between atoms: C5_6  and  C6_7
REMARK    3  A    between atoms: N2_9  and  C7_10
REMARK    4  A    between atoms: C19_23  and  O3_24
REMARK    5  A    between atoms: O3_24  and  C20_25
REMARK    6  A    between atoms: C20_25  and  C21_26
REMARK    7  A    between atoms: C21_26  and  C22_27
REMARK    8  A    between atoms: C22_27  and  C23_28
REMARK    9  A    between atoms: C23_28  and  O4_29
REMARK   10  A    between atoms: O4_29  and  C24_30
REMARK   11  A    between atoms: C27_33  and  C28_34
REMARK                            x       y       z     vdW  Elec       q    Type
REMARK                         _______ _______ _______ _____ _____    ______ ____
ROOT
ATOM      1  C2  UNL     1     -56.981  43.924 -18.596  0.00  0.00    +0.172 A 
ATOM      2  C3  UNL     1     -56.521  45.130 -18.036  0.00  0.00    +0.040 A 
ATOM      3  C4  UNL     1     -55.418  45.793 -18.580  0.00  0.00    +0.005 A 
ATOM      4  C5  UNL     1     -54.746  45.266 -19.695  0.00  0.00    +0.019 A 
ATOM      5  C18 UNL     1     -55.197  44.047 -20.234  0.00  0.00    +0.041 A 
ATOM      6  C19 UNL     1     -56.322  43.384 -19.708  0.00  0.00    +0.172 A 
ENDROOT
BRANCH   4   7
ATOM      7  C6  UNL     1     -53.595  45.958 -20.346  0.00  0.00    +0.086 C 
ATOM      8  N1  UNL     1     -53.672  47.212 -20.664  0.00  0.00    -0.171 NA
ATOM      9  N2  UNL     1     -52.471  47.645 -21.220  0.00  0.00    -0.222 N 
ATOM     10  C14 UNL     1     -51.627  46.668 -21.264  0.00  0.00    +0.257 C 
ATOM     11  O2  UNL     1     -50.335  46.794 -21.775  0.00  0.00    -0.270 OA
ATOM     12  C15 UNL     1     -52.217  45.410 -20.688  0.00  0.00    +0.110 C 
ATOM     13  C16 UNL     1     -52.267  44.315 -21.765  0.00  0.00    +0.015 C 
ATOM     14  C17 UNL     1     -51.418  44.990 -19.441  0.00  0.00    +0.015 C 
BRANCH   9  15
ATOM     15  C7  UNL     1     -52.239  49.031 -21.647  0.00  0.00    +0.108 C 
ATOM     16  C8  UNL     1     -53.338  49.939 -21.052  0.00  0.00    +0.024 C 
ATOM     17  C9  UNL     1     -53.025  51.443 -21.140  0.00  0.00    +0.002 C 
ATOM     18  C10 UNL     1     -52.272  51.952 -19.900  0.00  0.00    +0.000 C 
ATOM     19  C11 UNL     1     -50.794  51.544 -19.861  0.00  0.00    +0.000 C 
ATOM     20  C12 UNL     1     -50.573  50.024 -19.904  0.00  0.00    +0.002 C 
ATOM     21  C13 UNL     1     -50.784  49.444 -21.315  0.00  0.00    +0.024 C 
ENDBRANCH   9  15
ENDBRANCH   4   7
BRANCH   1  23
ATOM     22  C1  UNL     1     -58.038  42.347 -16.963  0.00  0.00    +0.253 C 
ATOM     23  O1  UNL     1     -58.089  43.235 -18.076  0.00  0.00    -0.468 OA
ENDBRANCH   1  23
BRANCH   6  24
ATOM     24  O3  UNL     1     -56.815  42.189 -20.263  0.00  0.00    -0.472 OA
BRANCH  24  25
ATOM     25  C20 UNL     1     -56.055  41.263 -21.042  0.00  0.00    +0.206 C 
BRANCH  25  26
ATOM     26  C21 UNL     1     -55.076  40.473 -20.161  0.00  0.00    +0.051 C 
BRANCH  26  27
ATOM     27  C22 UNL     1     -55.776  39.949 -18.903  0.00  0.00    +0.051 C 
BRANCH  27  28
ATOM     28  C23 UNL     1     -55.175  40.569 -17.637  0.00  0.00    +0.206 C 
BRANCH  28  29
ATOM     29  O4  UNL     1     -53.756  40.678 -17.760  0.00  0.00    -0.475 OA
BRANCH  29  30
ATOM     30  C24 UNL     1     -52.970  41.702 -17.203  0.00  0.00    +0.139 A 
ATOM     31  C25 UNL     1     -51.827  41.446 -16.423  0.00  0.00    +0.037 A 
ATOM     32  C26 UNL     1     -51.082  42.503 -15.891  0.00  0.00    +0.006 A 
ATOM     33  C27 UNL     1     -51.459  43.836 -16.132  0.00  0.00    +0.040 A 
ATOM     34  C29 UNL     1     -52.598  44.086 -16.917  0.00  0.00    +0.006 A 
ATOM     35  C30 UNL     1     -53.344  43.027 -17.446  0.00  0.00    +0.037 A 
BRANCH  33  36
ATOM     36  C28 UNL     1     -50.667  44.957 -15.570  0.00  0.00    +0.208 A 
ATOM     37  N3  UNL     1     -51.005  45.682 -14.480  0.00  0.00    -0.106 NA
ATOM     38  N4  UNL     1     -50.040  46.576 -14.331  0.00  0.00    -0.021 NA
ATOM     39  N5  UNL     1     -49.138  46.415 -15.283  0.00  0.00    -0.021 NA
ATOM     40  N6  UNL     1     -49.499  45.416 -16.071  0.00  0.00    -0.106 NA
ENDBRANCH  33  36
ENDBRANCH  29  30
ENDBRANCH  28  29
ENDBRANCH  27  28
ENDBRANCH  26  27
ENDBRANCH  25  26
ENDBRANCH  24  25
ENDBRANCH   6  24
TORSDOF 11
ENDMDL
