REMARK  Name = ./data/cofactor_redock/pdb/l0c0.pdb
REMARK  7 active torsions:
REMARK  status: ('A' for Active; 'I' for Inactive)
REMARK    1  A    between atoms: S1_2  and  C2_3
REMARK    2  A    between atoms: S1_2  and  C6_10
REMARK    3  A    between atoms: C2_3  and  C3_4
REMARK    4  A    between atoms: C3_4  and  C4_5
REMARK    5  A    between atoms: C4_5  and  C5_7
REMARK    6  A    between atoms: C6_10  and  C7_11
REMARK    7  A    between atoms: C8_13  and  N2_14
REMARK                            x       y       z     vdW  Elec       q    Type
REMARK                         _______ _______ _______ _____ _____    ______ ____
ROOT
ATOM      1  C7  UNL     1      -0.839  -1.012  -1.424  0.00  0.00    +0.160 C 
ATOM      2  O3  UNL     1       0.194  -1.303  -0.505  0.00  0.00    -0.332 OA
ATOM      3  C8  UNL     1      -0.301  -2.224   0.444  0.00  0.00    +0.241 C 
ATOM      4  C14 UNL     1      -1.754  -2.576   0.107  0.00  0.00    +0.234 C 
ATOM      5  O4  UNL     1      -1.845  -3.844  -0.504  0.00  0.00    -0.216 OA
ATOM      6  C15 UNL     1      -2.169  -1.462  -0.824  0.00  0.00    +0.214 C 
ATOM      7  O5  UNL     1      -3.059  -1.913  -1.814  0.00  0.00    -0.218 OA
ENDROOT
BRANCH   3   8
ATOM      8  N2  UNL     1      -0.207  -1.641   1.786  0.00  0.00    -0.269 N 
ATOM      9  C9  UNL     1      -0.368  -0.342   2.152  0.00  0.00    +0.182 A 
ATOM     10  N3  UNL     1      -0.294  -0.147   3.498  0.00  0.00    -0.219 NA
ATOM     11  C10 UNL     1      -0.088  -1.393   3.967  0.00  0.00    +0.152 A 
ATOM     12  C11 UNL     1       0.043  -1.831   5.280  0.00  0.00    +0.192 A 
ATOM     13  N4  UNL     1      -0.004  -0.918   6.380  0.00  0.00    -0.105 NA
ATOM     14  N5  UNL     1       0.215  -3.174   5.487  0.00  0.00    -0.204 NA
ATOM     15  C12 UNL     1       0.254  -4.057   4.435  0.00  0.00    +0.202 A 
ATOM     16  N6  UNL     1       0.121  -3.613   3.148  0.00  0.00    -0.205 NA
ATOM     17  C13 UNL     1      -0.044  -2.283   2.950  0.00  0.00    +0.169 A 
ENDBRANCH   3   8
BRANCH   1  18
ATOM     18  C6  UNL     1      -0.848   0.486  -1.748  0.00  0.00    +0.080 C 
BRANCH  18  20
ATOM     19  C1  UNL     1       0.936   0.610  -4.063  0.00  0.00    +0.059 C 
ATOM     20  S1  UNL     1       0.754   1.010  -2.340  0.00  0.00    -0.176 S 
BRANCH  20  21
ATOM     21  C2  UNL     1       1.025   2.759  -2.081  0.00  0.00    +0.050 C 
BRANCH  21  22
ATOM     22  C3  UNL     1       0.989   3.156  -0.594  0.00  0.00    +0.041 C 
BRANCH  22  23
ATOM     23  C4  UNL     1       1.991   2.389   0.299  0.00  0.00    +0.195 C 
ATOM     24  N1  UNL     1       1.840   2.823   1.690  0.00  0.00    -0.121 NA
BRANCH  23  25
ATOM     25  C5  UNL     1       3.415   2.576  -0.159  0.00  0.00    +0.382 C 
ATOM     26  O1  UNL     1       3.886   3.732  -0.337  0.00  0.00    -0.244 OA
ATOM     27  O2  UNL     1       4.226   1.466  -0.362  0.00  0.00    -0.244 OA
ENDBRANCH  23  25
ENDBRANCH  22  23
ENDBRANCH  21  22
ENDBRANCH  20  21
ENDBRANCH  18  20
ENDBRANCH   1  18
TORSDOF 7
