REMARK  Name = ./data/cofactor_redock/pdb/l1c0.pdb
REMARK  7 active torsions:
REMARK  status: ('A' for Active; 'I' for Inactive)
REMARK    1  A    between atoms: N5_10  and  C6_11
REMARK    2  A    between atoms: C7_13  and  C8_14
REMARK    3  A    between atoms: C8_14  and  S1_15
REMARK    4  A    between atoms: S1_15  and  C9_16
REMARK    5  A    between atoms: C9_16  and  C10_17
REMARK    6  A    between atoms: C10_17  and  C11_18
REMARK    7  A    between atoms: C11_18  and  C12_20
REMARK                            x       y       z     vdW  Elec       q    Type
REMARK                         _______ _______ _______ _____ _____    ______ ____
ROOT
ATOM      1  C6  UNL     1      -1.792  -1.710   0.438  0.00  0.00    +0.241 C 
ATOM      2  O1  UNL     1      -0.710  -1.670   1.348  0.00  0.00    -0.332 OA
ATOM      3  C7  UNL     1       0.489  -1.780   0.612  0.00  0.00    +0.161 C 
ATOM      4  C13 UNL     1       0.194  -1.429  -0.843  0.00  0.00    +0.214 C 
ATOM      5  O4  UNL     1       1.039  -2.129  -1.718  0.00  0.00    -0.218 OA
ATOM      6  C14 UNL     1      -1.252  -1.839  -0.990  0.00  0.00    +0.234 C 
ATOM      7  O5  UNL     1      -1.387  -3.157  -1.473  0.00  0.00    -0.216 OA
ENDROOT
BRANCH   1  17
ATOM      8  N1  UNL     1      -5.885   2.796   0.298  0.00  0.00    -0.105 NA
ATOM      9  C1  UNL     1      -5.498   1.433   0.127  0.00  0.00    +0.192 A 
ATOM     10  N2  UNL     1      -6.389   0.511  -0.347  0.00  0.00    -0.204 NA
ATOM     11  C2  UNL     1      -6.032  -0.800  -0.530  0.00  0.00    +0.202 A 
ATOM     12  N3  UNL     1      -4.763  -1.220  -0.239  0.00  0.00    -0.205 NA
ATOM     13  C3  UNL     1      -3.883  -0.306   0.242  0.00  0.00    +0.169 A 
ATOM     14  C4  UNL     1      -4.212   0.994   0.422  0.00  0.00    +0.152 A 
ATOM     15  N4  UNL     1      -3.150   1.696   0.857  0.00  0.00    -0.219 NA
ATOM     16  C5  UNL     1      -2.173   0.751   0.929  0.00  0.00    +0.182 A 
ATOM     17  N5  UNL     1      -2.595  -0.491   0.571  0.00  0.00    -0.269 N 
ENDBRANCH   1  17
BRANCH   3  18
ATOM     18  C8  UNL     1       1.556  -0.872   1.236  0.00  0.00    +0.090 C 
BRANCH  18  19
ATOM     19  S1  UNL     1       3.210  -1.214   0.522  0.00  0.00    -0.138 S 
BRANCH  19  20
ATOM     20  C9  UNL     1       3.436   0.390  -0.333  0.00  0.00    +0.060 C 
BRANCH  20  21
ATOM     21  C10 UNL     1       3.904   1.494   0.629  0.00  0.00    +0.042 C 
BRANCH  21  22
ATOM     22  C11 UNL     1       5.332   1.265   1.179  0.00  0.00    +0.195 C 
ATOM     23  N6  UNL     1       5.659   2.256   2.207  0.00  0.00    -0.121 NA
BRANCH  22  24
ATOM     24  C12 UNL     1       6.361   1.322   0.085  0.00  0.00    +0.382 C 
ATOM     25  O2  UNL     1       6.563   2.393  -0.547  0.00  0.00    -0.244 OA
ATOM     26  O3  UNL     1       7.089   0.185  -0.243  0.00  0.00    -0.244 OA
ENDBRANCH  22  24
ENDBRANCH  21  22
ENDBRANCH  20  21
ENDBRANCH  19  20
ENDBRANCH  18  19
ENDBRANCH   3  18
TORSDOF 7
