EMPTY MOLECULE DESCRIBING GYPSUM-DL PARAMETERS
     RDKit          2D

  0  0  0  0  0  0  0  0  0  0999 V2000
M  END
>  <source>  (1) 
/Users/jake/Desktop/galene/data/lig/bc02_ac05.smi

>  <output_folder>  (1) 
data/lig

>  <separate_output_files>  (1) 
False

>  <add_pdb_output>  (1) 
False

>  <add_html_output>  (1) 
False

>  <num_processors>  (1) 
-1

>  <start_time>  (1) 
0

>  <end_time>  (1) 
0

>  <run_time>  (1) 
0

>  <min_ph>  (1) 
6.0

>  <max_ph>  (1) 
8.0

>  <pka_precision>  (1) 
1.0

>  <thoroughness>  (1) 
3

>  <max_variants_per_compound>  (1) 
3

>  <second_embed>  (1) 
False

>  <2d_output_only>  (1) 
False

>  <skip_optimize_geometry>  (1) 
False

>  <skip_alternate_ring_conformations>  (1) 
False

>  <skip_adding_hydrogen>  (1) 
False

>  <skip_making_tautomers>  (1) 
False

>  <skip_enumerate_chiral_mol>  (1) 
False

>  <skip_enumerate_double_bonds>  (1) 
False

>  <let_tautomers_change_chirality>  (1) 
False

>  <use_durrant_lab_filters>  (1) 
False

>  <job_manager>  (1) 
multiprocessing

>  <cache_prerun>  (1) 
False

>  <test>  (1) 
False

>  <Parallelizer>  (1) 
<gypsum_dl.Parallelizer.Parallelizer object at 0x816ecfdd8>

$$$$
ac05
     RDKit          3D

 77 81  0  0  0  0  0  0  0  0999 V2000
    3.6769   -2.6117   -0.5268 C   0  0  0  0  0  0  0  0  0  0  0  0
    2.2748   -2.5595   -0.2847 O   0  0  0  0  0  0  0  0  0  0  0  0
    1.5725   -1.3914    0.0535 C   0  0  0  0  0  0  0  0  0  0  0  0
    2.2076   -0.1418    0.1467 C   0  0  0  0  0  0  0  0  0  0  0  0
    1.4838    0.9947    0.5069 C   0  0  0  0  0  0  0  0  0  0  0  0
    0.1054    0.9192    0.7805 C   0  0  0  0  0  0  0  0  0  0  0  0
   -0.6311    2.1604    1.1754 C   0  0  0  0  0  0  0  0  0  0  0  0
    0.0099    3.2808    1.3359 N   0  0  0  0  0  0  0  0  0  0  0  0
   -0.8598    4.3165    1.6702 N   0  0  0  0  0  0  0  0  0  0  0  0
   -0.4665    5.7213    1.7993 C   0  0  0  0  0  0  0  0  0  0  0  0
    0.6307    5.8671    2.8820 C   0  0  0  0  0  0  0  0  0  0  0  0
    2.0772    5.7498    2.3691 C   0  0  0  0  0  0  0  0  0  0  0  0
    2.6347    7.0993    1.8883 C   0  0  0  0  0  0  0  0  0  0  0  0
    2.1127    7.5261    0.5111 C   0  0  0  0  0  0  0  0  0  0  0  0
    0.5829    7.6543    0.4436 C   0  0  0  0  0  0  0  0  0  0  0  0
   -0.1129    6.2835    0.4062 C   0  0  0  0  0  0  0  0  0  0  0  0
   -2.1699    3.7930    1.6832 C   0  0  0  0  0  0  0  0  0  0  0  0
   -3.2031    4.4814    1.9048 O   0  0  0  0  0  0  0  0  0  0  0  0
   -2.1406    2.3248    1.4004 C   0  0  0  0  0  0  0  0  0  0  0  0
   -2.6497    1.5692    2.6411 C   0  0  0  0  0  0  0  0  0  0  0  0
   -2.9671    2.0293    0.1375 C   0  0  0  0  0  0  0  0  0  0  0  0
   -0.5257   -0.3341    0.6738 C   0  0  0  0  0  0  0  0  0  0  0  0
    0.1982   -1.4881    0.3105 C   0  0  0  0  0  0  0  0  0  0  0  0
   -0.4040   -2.7548    0.2075 O   0  0  0  0  0  0  0  0  0  0  0  0
   -1.7984   -3.0357    0.3506 C   0  0  0  0  0  0  0  0  0  0  0  0
   -2.5992   -2.5892   -0.8828 C   0  0  0  0  0  0  0  0  0  0  0  0
   -2.0404   -3.1184   -2.2155 C   0  0  0  0  0  0  0  0  0  0  0  0
   -2.1845   -4.6395   -2.3786 C   0  0  0  0  0  0  0  0  0  0  0  0
   -1.2196   -5.3440   -1.5971 O   0  0  0  0  0  0  0  0  0  0  0  0
    0.1506   -5.4470   -1.8875 C   0  0  0  0  0  0  0  0  0  0  0  0
    0.9757   -6.0825   -0.9537 C   0  0  0  0  0  0  0  0  0  0  0  0
    2.3444   -6.2268   -1.1942 C   0  0  0  0  0  0  0  0  0  0  0  0
    2.9130   -5.7346   -2.3804 C   0  0  0  0  0  0  0  0  0  0  0  0
    4.3615   -5.8807   -2.6337 C   0  0  0  0  0  0  0  0  0  0  0  0
    4.9896   -5.4510   -3.7443 N   0  0  0  0  0  0  0  0  0  0  0  0
    6.2599   -5.7697   -3.5579 N   0  0  0  0  0  0  0  0  0  0  0  0
    6.4043   -6.3659   -2.3849 N   0  0  0  0  0  2  0  0  0  0  0  0
    5.2317   -6.4509   -1.7791 N   0  0  0  0  0  0  0  0  0  0  0  0
    2.0878   -5.0895   -3.3163 C   0  0  0  0  0  0  0  0  0  0  0  0
    0.7186   -4.9469   -3.0746 C   0  0  0  0  0  0  0  0  0  0  0  0
    4.2322   -2.2447    0.3619 H   0  0  0  0  0  0  0  0  0  0  0  0
    3.9755   -3.6612   -0.7151 H   0  0  0  0  0  0  0  0  0  0  0  0
    3.9327   -2.0020   -1.4185 H   0  0  0  0  0  0  0  0  0  0  0  0
    3.2651   -0.0368   -0.0531 H   0  0  0  0  0  0  0  0  0  0  0  0
    2.0119    1.9377    0.5715 H   0  0  0  0  0  0  0  0  0  0  0  0
   -1.3455    6.2960    2.1694 H   0  0  0  0  0  0  0  0  0  0  0  0
    0.4973    6.8373    3.4097 H   0  0  0  0  0  0  0  0  0  0  0  0
    0.4682    5.0876    3.6593 H   0  0  0  0  0  0  0  0  0  0  0  0
    2.7108    5.4115    3.2178 H   0  0  0  0  0  0  0  0  0  0  0  0
    2.1672    4.9775    1.5754 H   0  0  0  0  0  0  0  0  0  0  0  0
    2.4238    7.8957    2.6353 H   0  0  0  0  0  0  0  0  0  0  0  0
    3.7409    7.0130    1.8188 H   0  0  0  0  0  0  0  0  0  0  0  0
    2.5544    8.5184    0.2738 H   0  0  0  0  0  0  0  0  0  0  0  0
    2.4771    6.8189   -0.2664 H   0  0  0  0  0  0  0  0  0  0  0  0
    0.3342    8.1915   -0.4977 H   0  0  0  0  0  0  0  0  0  0  0  0
    0.2007    8.2772    1.2819 H   0  0  0  0  0  0  0  0  0  0  0  0
   -1.0623    6.3876   -0.1646 H   0  0  0  0  0  0  0  0  0  0  0  0
    0.5058    5.5536   -0.1606 H   0  0  0  0  0  0  0  0  0  0  0  0
   -1.9962    1.7734    3.5170 H   0  0  0  0  0  0  0  0  0  0  0  0
   -3.6811    1.8981    2.8915 H   0  0  0  0  0  0  0  0  0  0  0  0
   -2.6869    0.4762    2.4833 H   0  0  0  0  0  0  0  0  0  0  0  0
   -2.5566    2.5839   -0.7347 H   0  0  0  0  0  0  0  0  0  0  0  0
   -2.9745    0.9513   -0.1093 H   0  0  0  0  0  0  0  0  0  0  0  0
   -4.0223    2.3435    0.2885 H   0  0  0  0  0  0  0  0  0  0  0  0
   -1.5701   -0.4253    0.8816 H   0  0  0  0  0  0  0  0  0  0  0  0
   -1.9255   -4.1278    0.4941 H   0  0  0  0  0  0  0  0  0  0  0  0
   -2.2007   -2.5581    1.2691 H   0  0  0  0  0  0  0  0  0  0  0  0
   -2.6097   -1.4807   -0.9292 H   0  0  0  0  0  0  0  0  0  0  0  0
   -3.6555   -2.9153   -0.7656 H   0  0  0  0  0  0  0  0  0  0  0  0
   -2.6121   -2.6337   -3.0362 H   0  0  0  0  0  0  0  0  0  0  0  0
   -0.9812   -2.8071   -2.3369 H   0  0  0  0  0  0  0  0  0  0  0  0
   -2.0914   -4.9258   -3.4481 H   0  0  0  0  0  0  0  0  0  0  0  0
   -3.1999   -4.9518   -2.0548 H   0  0  0  0  0  0  0  0  0  0  0  0
    0.5522   -6.4672   -0.0347 H   0  0  0  0  0  0  0  0  0  0  0  0
    2.9570   -6.7225   -0.4514 H   0  0  0  0  0  0  0  0  0  0  0  0
    2.5003   -4.6953   -4.2366 H   0  0  0  0  0  0  0  0  0  0  0  0
    0.1147   -4.4498   -3.8200 H   0  0  0  0  0  0  0  0  0  0  0  0
  1  2  1  0
  2  3  1  0
  3  4  2  0
  4  5  1  0
  5  6  2  0
  6  7  1  0
  7  8  2  0
  8  9  1  0
  9 10  1  0
 10 11  1  0
 11 12  1  0
 12 13  1  0
 13 14  1  0
 14 15  1  0
 15 16  1  0
  9 17  1  0
 17 18  2  0
 17 19  1  0
 19 20  1  0
 19 21  1  0
  6 22  1  0
 22 23  2  0
 23 24  1  0
 24 25  1  0
 25 26  1  0
 26 27  1  0
 27 28  1  0
 28 29  1  0
 29 30  1  0
 30 31  2  0
 31 32  1  0
 32 33  2  0
 33 34  1  0
 34 35  1  0
 35 36  2  0
 36 37  1  0
 37 38  1  0
 33 39  1  0
 39 40  2  0
 23  3  1  0
 40 30  1  0
 19  7  1  0
 38 34  2  0
 16 10  1  0
  1 41  1  0
  1 42  1  0
  1 43  1  0
  4 44  1  0
  5 45  1  0
 10 46  1  0
 11 47  1  0
 11 48  1  0
 12 49  1  0
 12 50  1  0
 13 51  1  0
 13 52  1  0
 14 53  1  0
 14 54  1  0
 15 55  1  0
 15 56  1  0
 16 57  1  0
 16 58  1  0
 20 59  1  0
 20 60  1  0
 20 61  1  0
 21 62  1  0
 21 63  1  0
 21 64  1  0
 22 65  1  0
 25 66  1  0
 25 67  1  0
 26 68  1  0
 26 69  1  0
 27 70  1  0
 27 71  1  0
 28 72  1  0
 28 73  1  0
 31 74  1  0
 32 75  1  0
 39 76  1  0
 40 77  1  0
M  CHG  1  37  -1
M  END
>  <UniqueID>  (2) 
1

>  <SMILES>  (2) 
COc1ccc(C2=NN(C3CCCCCC3)C(=O)C2(C)C)cc1OCCCCOc1ccc(-c2nn[n-]n2)cc1

>  <Energy>  (2) 
132.4996647905433

>  <Genealogy>  (2) 
COc1ccc(C2=NN(C3CCCCCC3)C(=O)C2(C)C)cc1OCCCCOc1ccc(-c2nn[n-]n2)cc1 (protonated)
COc1ccc(C2=NN(C3CCCCCC3)C(=O)C2(C)C)cc1OCCCCOc1ccc(-c2nn[n-]n2)cc1 (3D coordinates assigned)
COc1ccc(C2=NN(C3CCCCCC3)C(=O)C2(C)C)cc1OCCCCOc1ccc(-c2nn[n-]n2)cc1 (nonaromatic ring conformer: 132.4996647905433 kcal/mol)

$$$$
ac05
     RDKit          3D

 78 82  0  0  0  0  0  0  0  0999 V2000
    2.3876   -2.1305    4.6054 C   0  0  0  0  0  0  0  0  0  0  0  0
    1.9213   -1.3964    3.4796 O   0  0  0  0  0  0  0  0  0  0  0  0
    0.5981   -1.4174    3.0093 C   0  0  0  0  0  0  0  0  0  0  0  0
   -0.4128   -2.1499    3.6551 C   0  0  0  0  0  0  0  0  0  0  0  0
   -1.7084   -2.1837    3.1358 C   0  0  0  0  0  0  0  0  0  0  0  0
   -2.0343   -1.4723    1.9702 C   0  0  0  0  0  0  0  0  0  0  0  0
   -3.3777   -1.5661    1.3254 C   0  0  0  0  0  0  0  0  0  0  0  0
   -3.6654   -0.8569    0.2805 N   0  0  0  0  0  0  0  0  0  0  0  0
   -4.9009   -1.2402   -0.2379 N   0  0  0  0  0  4  0  0  0  0  0  0
   -5.5511   -0.5910   -1.3838 C   0  0  0  0  0  0  0  0  0  0  0  0
   -6.5545    0.4629   -0.8640 C   0  0  0  0  0  0  0  0  0  0  0  0
   -7.0767    1.4221   -1.9471 C   0  0  0  0  0  0  0  0  0  0  0  0
   -6.2045    2.6807   -2.0712 C   0  0  0  0  0  0  0  0  0  0  0  0
   -4.8651    2.4411   -2.7794 C   0  0  0  0  0  0  0  0  0  0  0  0
   -3.9897    1.3689   -2.1071 C   0  0  0  0  0  0  0  0  0  0  0  0
   -4.4967   -0.0595   -2.3897 C   0  0  0  0  0  0  0  0  0  0  0  0
   -5.4066   -2.1833    0.4832 C   0  0  0  0  0  0  0  0  0  0  0  0
   -6.6482   -2.7609    0.2229 O   0  0  0  0  0  0  0  0  0  0  0  0
   -4.5040   -2.5448    1.6277 C   0  0  0  0  0  0  0  0  0  0  0  0
   -5.2172   -2.2372    2.9550 C   0  0  0  0  0  0  0  0  0  0  0  0
   -4.0687   -4.0144    1.5098 C   0  0  0  0  0  0  0  0  0  0  0  0
   -1.0295   -0.6966    1.3570 C   0  0  0  0  0  0  0  0  0  0  0  0
    0.2881   -0.6886    1.8525 C   0  0  0  0  0  0  0  0  0  0  0  0
    1.3244    0.0074    1.2081 O   0  0  0  0  0  0  0  0  0  0  0  0
    1.1663    0.8287    0.0507 C   0  0  0  0  0  0  0  0  0  0  0  0
    2.5356    1.2327   -0.4925 C   0  0  0  0  0  0  0  0  0  0  0  0
    3.3654    2.0084    0.5416 C   0  0  0  0  0  0  0  0  0  0  0  0
    4.7399    2.3855   -0.0146 C   0  0  0  0  0  0  0  0  0  0  0  0
    5.4561    1.2065   -0.3767 O   0  0  0  0  0  0  0  0  0  0  0  0
    6.7444    1.1918   -0.9279 C   0  0  0  0  0  0  0  0  0  0  0  0
    7.2732   -0.0354   -1.3404 C   0  0  0  0  0  0  0  0  0  0  0  0
    8.5533   -0.1078   -1.8968 C   0  0  0  0  0  0  0  0  0  0  0  0
    9.3364    1.0499   -2.0326 C   0  0  0  0  0  0  0  0  0  0  0  0
   10.6959    0.9721   -2.6037 C   0  0  0  0  0  0  0  0  0  0  0  0
   11.5525    2.0076   -2.6834 N   0  0  0  0  0  0  0  0  0  0  0  0
   12.6358    1.5051   -3.2499 N   0  0  0  0  0  0  0  0  0  0  0  0
   12.4507    0.2209   -3.5120 N   0  0  0  0  0  2  0  0  0  0  0  0
   11.2434   -0.1463   -3.1157 N   0  0  0  0  0  0  0  0  0  0  0  0
    8.8061    2.2853   -1.6181 C   0  0  0  0  0  0  0  0  0  0  0  0
    7.5172    2.3593   -1.0776 C   0  0  0  0  0  0  0  0  0  0  0  0
    1.8774   -1.7818    5.5273 H   0  0  0  0  0  0  0  0  0  0  0  0
    3.4786   -1.9634    4.7190 H   0  0  0  0  0  0  0  0  0  0  0  0
    2.2089   -3.2159    4.4552 H   0  0  0  0  0  0  0  0  0  0  0  0
   -0.2021   -2.7162    4.5526 H   0  0  0  0  0  0  0  0  0  0  0  0
   -2.4347   -2.7811    3.6573 H   0  0  0  0  0  0  0  0  0  0  0  0
   -6.1292   -1.3672   -1.9357 H   0  0  0  0  0  0  0  0  0  0  0  0
   -6.1017    1.0366   -0.0274 H   0  0  0  0  0  0  0  0  0  0  0  0
   -7.4230   -0.0773   -0.4290 H   0  0  0  0  0  0  0  0  0  0  0  0
   -7.1767    0.9074   -2.9277 H   0  0  0  0  0  0  0  0  0  0  0  0
   -8.0962    1.7520   -1.6511 H   0  0  0  0  0  0  0  0  0  0  0  0
   -6.0227    3.1247   -1.0680 H   0  0  0  0  0  0  0  0  0  0  0  0
   -6.7689    3.4374   -2.6586 H   0  0  0  0  0  0  0  0  0  0  0  0
   -5.0407    2.1816   -3.8462 H   0  0  0  0  0  0  0  0  0  0  0  0
   -4.3036    3.4012   -2.7700 H   0  0  0  0  0  0  0  0  0  0  0  0
   -2.9665    1.4601   -2.5348 H   0  0  0  0  0  0  0  0  0  0  0  0
   -3.8973    1.5610   -1.0156 H   0  0  0  0  0  0  0  0  0  0  0  0
   -4.9133   -0.1103   -3.4216 H   0  0  0  0  0  0  0  0  0  0  0  0
   -3.6258   -0.7521   -2.3941 H   0  0  0  0  0  0  0  0  0  0  0  0
   -7.0302   -3.4723    0.8350 H   0  0  0  0  0  0  0  0  0  0  0  0
   -4.5802   -2.4625    3.8328 H   0  0  0  0  0  0  0  0  0  0  0  0
   -5.5160   -1.1659    3.0039 H   0  0  0  0  0  0  0  0  0  0  0  0
   -6.1324   -2.8589    3.0491 H   0  0  0  0  0  0  0  0  0  0  0  0
   -3.4524   -4.3292    2.3758 H   0  0  0  0  0  0  0  0  0  0  0  0
   -4.9573   -4.6802    1.4775 H   0  0  0  0  0  0  0  0  0  0  0  0
   -3.4811   -4.1739    0.5816 H   0  0  0  0  0  0  0  0  0  0  0  0
   -1.2653   -0.1312    0.4684 H   0  0  0  0  0  0  0  0  0  0  0  0
    0.5718    1.7327    0.3099 H   0  0  0  0  0  0  0  0  0  0  0  0
    0.6424    0.2597   -0.7467 H   0  0  0  0  0  0  0  0  0  0  0  0
    3.0784    0.3108   -0.7955 H   0  0  0  0  0  0  0  0  0  0  0  0
    2.3906    1.8601   -1.3989 H   0  0  0  0  0  0  0  0  0  0  0  0
    3.5087    1.3898    1.4555 H   0  0  0  0  0  0  0  0  0  0  0  0
    2.8240    2.9371    0.8279 H   0  0  0  0  0  0  0  0  0  0  0  0
    5.3019    2.9393    0.7670 H   0  0  0  0  0  0  0  0  0  0  0  0
    4.6143    3.0382   -0.9049 H   0  0  0  0  0  0  0  0  0  0  0  0
    6.6887   -0.9426   -1.2276 H   0  0  0  0  0  0  0  0  0  0  0  0
    8.9312   -1.0747   -2.2078 H   0  0  0  0  0  0  0  0  0  0  0  0
    9.3880    3.1929   -1.7120 H   0  0  0  0  0  0  0  0  0  0  0  0
    7.1326    3.3234   -0.7700 H   0  0  0  0  0  0  0  0  0  0  0  0
  1  2  1  0
  2  3  1  0
  3  4  2  0
  4  5  1  0
  5  6  2  0
  6  7  1  0
  7  8  2  0
  8  9  1  0
  9 10  1  0
 10 11  1  0
 11 12  1  0
 12 13  1  0
 13 14  1  0
 14 15  1  0
 15 16  1  0
  9 17  2  0
 17 18  1  0
 17 19  1  0
 19 20  1  0
 19 21  1  0
  6 22  1  0
 22 23  2  0
 23 24  1  0
 24 25  1  0
 25 26  1  0
 26 27  1  0
 27 28  1  0
 28 29  1  0
 29 30  1  0
 30 31  2  0
 31 32  1  0
 32 33  2  0
 33 34  1  0
 34 35  1  0
 35 36  2  0
 36 37  1  0
 37 38  1  0
 33 39  1  0
 39 40  2  0
 23  3  1  0
 40 30  1  0
 19  7  1  0
 38 34  2  0
 16 10  1  0
  1 41  1  0
  1 42  1  0
  1 43  1  0
  4 44  1  0
  5 45  1  0
 10 46  1  0
 11 47  1  0
 11 48  1  0
 12 49  1  0
 12 50  1  0
 13 51  1  0
 13 52  1  0
 14 53  1  0
 14 54  1  0
 15 55  1  0
 15 56  1  0
 16 57  1  0
 16 58  1  0
 18 59  1  0
 20 60  1  0
 20 61  1  0
 20 62  1  0
 21 63  1  0
 21 64  1  0
 21 65  1  0
 22 66  1  0
 25 67  1  0
 25 68  1  0
 26 69  1  0
 26 70  1  0
 27 71  1  0
 27 72  1  0
 28 73  1  0
 28 74  1  0
 31 75  1  0
 32 76  1  0
 39 77  1  0
 40 78  1  0
M  CHG  2   9   1  37  -1
M  END
>  <UniqueID>  (3) 
2

>  <SMILES>  (3) 
COc1ccc(C2=N[N+](C3CCCCCC3)=C(O)C2(C)C)cc1OCCCCOc1ccc(-c2nn[n-]n2)cc1

>  <Energy>  (3) 
133.5678456979241

>  <Genealogy>  (3) 
COc1ccc(C2=N[NH+](C3CCCCCC3)C(=O)C2(C)C)cc1OCCCCOc1ccc(-c2nn[n-]n2)cc1 (protonated)
COc1ccc(C2=N[N+](C3CCCCCC3)=C(O)C2(C)C)cc1OCCCCOc1ccc(-c2nn[n-]n2)cc1 (tautomer)
COc1ccc(C2=N[N+](C3CCCCCC3)=C(O)C2(C)C)cc1OCCCCOc1ccc(-c2nn[n-]n2)cc1 (3D coordinates assigned)
COc1ccc(C2=N[N+](C3CCCCCC3)=C(O)C2(C)C)cc1OCCCCOc1ccc(-c2nn[n-]n2)cc1 (nonaromatic ring conformer: 133.5678456979241 kcal/mol)

$$$$
ac05
     RDKit          3D

 77 81  0  0  0  0  0  0  0  0999 V2000
   -2.9292   -3.8215    4.0209 C   0  0  0  0  0  0  0  0  0  0  0  0
   -2.4417   -3.1302    2.8740 O   0  0  0  0  0  0  0  0  0  0  0  0
   -2.1166   -1.7643    2.8475 C   0  0  0  0  0  0  0  0  0  0  0  0
   -2.2241   -0.9481    3.9865 C   0  0  0  0  0  0  0  0  0  0  0  0
   -1.8972    0.4077    3.9234 C   0  0  0  0  0  0  0  0  0  0  0  0
   -1.4652    0.9894    2.7199 C   0  0  0  0  0  0  0  0  0  0  0  0
   -1.1269    2.4413    2.6049 C   0  0  0  0  0  0  0  0  0  0  0  0
   -0.8720    2.9640    1.4421 N   0  0  0  0  0  0  0  0  0  0  0  0
   -0.5169    4.3078    1.5523 N   0  0  0  0  0  0  0  0  0  0  0  0
    0.1349    5.0644    0.4816 C   0  0  0  0  0  0  0  0  0  0  0  0
    1.6077    4.6129    0.3688 C   0  0  0  0  0  0  0  0  0  0  0  0
    2.5668    5.7086   -0.1254 C   0  0  0  0  0  0  0  0  0  0  0  0
    2.0790    6.5665   -1.3069 C   0  0  0  0  0  0  0  0  0  0  0  0
    1.2142    5.8175   -2.3355 C   0  0  0  0  0  0  0  0  0  0  0  0
   -0.2749    5.8234   -1.9540 C   0  0  0  0  0  0  0  0  0  0  0  0
   -0.6317    4.8329   -0.8390 C   0  0  0  0  0  0  0  0  0  0  0  0
   -0.4873    4.6237    2.9280 C   0  0  0  0  0  0  0  0  0  0  0  0
   -0.1121    5.7373    3.3860 O   0  0  0  0  0  0  0  0  0  0  0  0
   -0.9425    3.4530    3.7406 C   0  0  0  0  0  0  0  0  0  0  0  0
   -2.2604    3.8189    4.4461 C   0  0  0  0  0  0  0  0  0  0  0  0
    0.1622    3.0368    4.7241 C   0  0  0  0  0  0  0  0  0  0  0  0
   -1.3488    0.1622    1.5851 C   0  0  0  0  0  0  0  0  0  0  0  0
   -1.6691   -1.2082    1.6427 C   0  0  0  0  0  0  0  0  0  0  0  0
   -1.5560   -2.0471    0.5216 O   0  0  0  0  0  0  0  0  0  0  0  0
   -1.0208   -1.6420   -0.7362 C   0  0  0  0  0  0  0  0  0  0  0  0
   -1.0585   -2.8140   -1.7162 C   0  0  0  0  0  0  0  0  0  0  0  0
   -0.4140   -2.4253   -3.0542 C   0  0  0  0  0  0  0  0  0  0  0  0
   -0.5496   -3.5376   -4.1011 C   0  0  0  0  0  0  0  0  0  0  0  0
    0.0506   -4.7569   -3.6599 O   0  0  0  0  0  0  0  0  0  0  0  0
    1.4266   -5.0383   -3.6537 C   0  0  0  0  0  0  0  0  0  0  0  0
    1.8351   -6.3068   -3.2277 C   0  0  0  0  0  0  0  0  0  0  0  0
    3.1895   -6.6501   -3.2078 C   0  0  0  0  0  0  0  0  0  0  0  0
    4.1635   -5.7163   -3.5976 C   0  0  0  0  0  0  0  0  0  0  0  0
    5.5962   -6.0722   -3.5630 C   0  0  0  0  0  0  0  0  0  0  0  0
    6.0679   -7.3247   -3.4159 N   0  0  0  0  0  0  0  0  0  0  0  0
    7.3843   -7.1944   -3.4458 N   0  0  0  0  0  0  0  0  0  0  0  0
    7.7056   -5.9178   -3.6029 N   0  0  0  0  0  2  0  0  0  0  0  0
    6.6057   -5.1867   -3.6840 N   0  0  0  0  0  0  0  0  0  0  0  0
    3.7574   -4.4407   -4.0205 C   0  0  0  0  0  0  0  0  0  0  0  0
    2.4001   -4.1078   -4.0627 C   0  0  0  0  0  0  0  0  0  0  0  0
   -2.1820   -3.7785    4.8420 H   0  0  0  0  0  0  0  0  0  0  0  0
   -3.8880   -3.3728    4.3558 H   0  0  0  0  0  0  0  0  0  0  0  0
   -3.1050   -4.8848    3.7561 H   0  0  0  0  0  0  0  0  0  0  0  0
   -2.5572   -1.3530    4.9318 H   0  0  0  0  0  0  0  0  0  0  0  0
   -1.9882    0.9794    4.8276 H   0  0  0  0  0  0  0  0  0  0  0  0
    0.0850    6.1454    0.7425 H   0  0  0  0  0  0  0  0  0  0  0  0
    1.9727    4.2945    1.3698 H   0  0  0  0  0  0  0  0  0  0  0  0
    1.6914    3.7161   -0.2844 H   0  0  0  0  0  0  0  0  0  0  0  0
    2.7908    6.3906    0.7217 H   0  0  0  0  0  0  0  0  0  0  0  0
    3.5229    5.2231   -0.4073 H   0  0  0  0  0  0  0  0  0  0  0  0
    2.9781    6.9622   -1.8288 H   0  0  0  0  0  0  0  0  0  0  0  0
    1.5335    7.4550   -0.9213 H   0  0  0  0  0  0  0  0  0  0  0  0
    1.3126    6.3445   -3.3099 H   0  0  0  0  0  0  0  0  0  0  0  0
    1.5827    4.7802   -2.4944 H   0  0  0  0  0  0  0  0  0  0  0  0
   -0.8650    5.5428   -2.8542 H   0  0  0  0  0  0  0  0  0  0  0  0
   -0.5965    6.8469   -1.6665 H   0  0  0  0  0  0  0  0  0  0  0  0
   -0.4728    3.7929   -1.2044 H   0  0  0  0  0  0  0  0  0  0  0  0
   -1.7214    4.9385   -0.6388 H   0  0  0  0  0  0  0  0  0  0  0  0
   -2.6157    3.0158    5.1176 H   0  0  0  0  0  0  0  0  0  0  0  0
   -3.0576    4.0297    3.7016 H   0  0  0  0  0  0  0  0  0  0  0  0
   -2.1162    4.7256    5.0735 H   0  0  0  0  0  0  0  0  0  0  0  0
    0.4290    3.8862    5.3891 H   0  0  0  0  0  0  0  0  0  0  0  0
    1.0764    2.7242    4.1739 H   0  0  0  0  0  0  0  0  0  0  0  0
   -0.1635    2.1947    5.3673 H   0  0  0  0  0  0  0  0  0  0  0  0
   -1.0031    0.5872    0.6530 H   0  0  0  0  0  0  0  0  0  0  0  0
   -1.6286   -0.8071   -1.1471 H   0  0  0  0  0  0  0  0  0  0  0  0
    0.0300   -1.3044   -0.5975 H   0  0  0  0  0  0  0  0  0  0  0  0
   -0.5092   -3.6745   -1.2767 H   0  0  0  0  0  0  0  0  0  0  0  0
   -2.1171   -3.1144   -1.8816 H   0  0  0  0  0  0  0  0  0  0  0  0
   -0.9148   -1.5146   -3.4527 H   0  0  0  0  0  0  0  0  0  0  0  0
    0.6575   -2.1815   -2.8890 H   0  0  0  0  0  0  0  0  0  0  0  0
   -0.1081   -3.2171   -5.0683 H   0  0  0  0  0  0  0  0  0  0  0  0
   -1.6287   -3.7246   -4.2860 H   0  0  0  0  0  0  0  0  0  0  0  0
    1.0952   -7.0325   -2.9120 H   0  0  0  0  0  0  0  0  0  0  0  0
    3.4757   -7.6396   -2.8728 H   0  0  0  0  0  0  0  0  0  0  0  0
    4.4878   -3.7050   -4.3338 H   0  0  0  0  0  0  0  0  0  0  0  0
    2.1258   -3.1259   -4.4186 H   0  0  0  0  0  0  0  0  0  0  0  0
  1  2  1  0
  2  3  1  0
  3  4  2  0
  4  5  1  0
  5  6  2  0
  6  7  1  0
  7  8  2  0
  8  9  1  0
  9 10  1  0
 10 11  1  0
 11 12  1  0
 12 13  1  0
 13 14  1  0
 14 15  1  0
 15 16  1  0
  9 17  1  0
 17 18  2  0
 17 19  1  0
 19 20  1  0
 19 21  1  0
  6 22  1  0
 22 23  2  0
 23 24  1  0
 24 25  1  0
 25 26  1  0
 26 27  1  0
 27 28  1  0
 28 29  1  0
 29 30  1  0
 30 31  2  0
 31 32  1  0
 32 33  2  0
 33 34  1  0
 34 35  1  0
 35 36  2  0
 36 37  1  0
 37 38  1  0
 33 39  1  0
 39 40  2  0
 23  3  1  0
 40 30  1  0
 19  7  1  0
 38 34  2  0
 16 10  1  0
  1 41  1  0
  1 42  1  0
  1 43  1  0
  4 44  1  0
  5 45  1  0
 10 46  1  0
 11 47  1  0
 11 48  1  0
 12 49  1  0
 12 50  1  0
 13 51  1  0
 13 52  1  0
 14 53  1  0
 14 54  1  0
 15 55  1  0
 15 56  1  0
 16 57  1  0
 16 58  1  0
 20 59  1  0
 20 60  1  0
 20 61  1  0
 21 62  1  0
 21 63  1  0
 21 64  1  0
 22 65  1  0
 25 66  1  0
 25 67  1  0
 26 68  1  0
 26 69  1  0
 27 70  1  0
 27 71  1  0
 28 72  1  0
 28 73  1  0
 31 74  1  0
 32 75  1  0
 39 76  1  0
 40 77  1  0
M  CHG  1  37  -1
M  END
>  <UniqueID>  (4) 
3

>  <SMILES>  (4) 
COc1ccc(C2=NN(C3CCCCCC3)C(=O)C2(C)C)cc1OCCCCOc1ccc(-c2nn[n-]n2)cc1

>  <Energy>  (4) 
133.84627322908577

>  <Genealogy>  (4) 
COc1ccc(C2=NN(C3CCCCCC3)C(=O)C2(C)C)cc1OCCCCOc1ccc(-c2nn[n-]n2)cc1 (protonated)
COc1ccc(C2=NN(C3CCCCCC3)C(=O)C2(C)C)cc1OCCCCOc1ccc(-c2nn[n-]n2)cc1 (3D coordinates assigned)
COc1ccc(C2=NN(C3CCCCCC3)C(=O)C2(C)C)cc1OCCCCOc1ccc(-c2nn[n-]n2)cc1 (nonaromatic ring conformer: 133.84627322908577 kcal/mol)

$$$$
bc02
     RDKit          3D

 83 88  0  0  0  0  0  0  0  0999 V2000
    0.5672   -5.8841    0.9409 C   0  0  0  0  0  0  0  0  0  0  0  0
    0.0330   -4.6759    1.4701 O   0  0  0  0  0  0  0  0  0  0  0  0
   -0.3520   -3.5717    0.6942 C   0  0  0  0  0  0  0  0  0  0  0  0
   -0.2870   -3.5876   -0.7105 C   0  0  0  0  0  0  0  0  0  0  0  0
   -0.6409   -2.4582   -1.4488 C   0  0  0  0  0  0  0  0  0  0  0  0
   -1.0754   -1.2905   -0.8018 C   0  0  0  0  0  0  0  0  0  0  0  0
   -1.3722   -0.0483   -1.5606 C   0  0  0  0  0  0  0  0  0  0  0  0
   -1.1775    1.0990   -0.9728 N   0  0  0  0  0  0  0  0  0  0  0  0
   -1.4655    2.3395   -1.5781 N   0  0  0  0  0  0  0  0  0  0  0  0
   -1.5459    3.5395   -0.7297 C   0  0  0  0  0  0  0  0  0  0  0  0
   -2.8265    3.4657    0.1310 C   0  0  0  0  0  0  0  0  0  0  0  0
   -2.8795    4.4979    1.2699 C   0  0  0  0  0  0  0  0  0  0  0  0
   -2.2633    3.9580    2.5705 C   0  0  0  0  0  0  0  0  0  0  0  0
   -0.7314    3.9102    2.5514 C   0  0  0  0  0  0  0  0  0  0  0  0
   -0.1590    3.0377    1.4246 C   0  0  0  0  0  0  0  0  0  0  0  0
   -0.2229    3.7369    0.0533 C   0  0  0  0  0  0  0  0  0  0  0  0
   -1.7334    2.3827   -2.9927 C   0  0  0  0  0  0  0  0  0  0  0  0
   -2.0275    3.4678   -3.5658 O   0  0  0  0  0  0  0  0  0  0  0  0
   -1.5822    1.1059   -3.7785 C   0  0  2  0  0  0  0  0  0  0  0  0
   -2.3113    1.1146   -5.1373 C   0  0  0  0  0  0  0  0  0  0  0  0
   -3.7973    0.9060   -5.0142 C   0  0  0  0  0  0  0  0  0  0  0  0
   -4.3531    0.2780   -3.9675 C   0  0  0  0  0  0  0  0  0  0  0  0
   -3.5883   -0.0545   -2.7128 C   0  0  0  0  0  0  0  0  0  0  0  0
   -2.0573   -0.0831   -2.9174 C   0  0  2  0  0  0  0  0  0  0  0  0
   -1.1704   -1.2885    0.6013 C   0  0  0  0  0  0  0  0  0  0  0  0
   -0.7966   -2.4172    1.3536 C   0  0  0  0  0  0  0  0  0  0  0  0
   -0.8410   -2.4320    2.7589 O   0  0  0  0  0  0  0  0  0  0  0  0
   -0.9753   -1.2864    3.6054 C   0  0  0  0  0  0  0  0  0  0  0  0
    0.2463   -0.3612    3.5067 C   0  0  0  0  0  0  0  0  0  0  0  0
    1.5613   -1.1136    3.7661 C   0  0  0  0  0  0  0  0  0  0  0  0
    2.7944   -0.2391    3.4893 C   0  0  0  0  0  0  0  0  0  0  0  0
    2.7318    0.3786    2.2010 O   0  0  0  0  0  0  0  0  0  0  0  0
    2.7272   -0.2959    0.9698 C   0  0  0  0  0  0  0  0  0  0  0  0
    3.1093   -1.6427    0.8379 C   0  0  0  0  0  0  0  0  0  0  0  0
    3.0370   -2.2766   -0.4063 C   0  0  0  0  0  0  0  0  0  0  0  0
    2.5943   -1.5765   -1.5423 C   0  0  0  0  0  0  0  0  0  0  0  0
    2.4850   -2.2748   -2.8449 C   0  0  0  0  0  0  0  0  0  0  0  0
    2.8190   -3.5650   -3.0439 N   0  0  0  0  0  0  0  0  0  0  0  0
    2.5437   -3.8019   -4.3186 N   0  0  0  0  0  0  0  0  0  0  0  0
    2.0567   -2.7088   -4.8858 N   0  0  0  0  0  2  0  0  0  0  0  0
    2.0099   -1.7429   -3.9865 N   0  0  0  0  0  4  0  0  0  0  0  0
    2.2433   -0.2219   -1.4093 C   0  0  0  0  0  0  0  0  0  0  0  0
    2.3173    0.4087   -0.1654 C   0  0  0  0  0  0  0  0  0  0  0  0
    0.8022   -6.5739    1.7775 H   0  0  0  0  0  0  0  0  0  0  0  0
   -0.1777   -6.3717    0.2770 H   0  0  0  0  0  0  0  0  0  0  0  0
    1.5020   -5.6737    0.3791 H   0  0  0  0  0  0  0  0  0  0  0  0
    0.0635   -4.4608   -1.2427 H   0  0  0  0  0  0  0  0  0  0  0  0
   -0.5199   -2.4953   -2.5211 H   0  0  0  0  0  0  0  0  0  0  0  0
   -1.6465    4.4410   -1.3739 H   0  0  0  0  0  0  0  0  0  0  0  0
   -2.9639    2.4393    0.5382 H   0  0  0  0  0  0  0  0  0  0  0  0
   -3.6933    3.6437   -0.5434 H   0  0  0  0  0  0  0  0  0  0  0  0
   -3.9478    4.7274    1.4761 H   0  0  0  0  0  0  0  0  0  0  0  0
   -2.3958    5.4528    0.9697 H   0  0  0  0  0  0  0  0  0  0  0  0
   -2.5726    4.6242    3.4053 H   0  0  0  0  0  0  0  0  0  0  0  0
   -2.6681    2.9478    2.8006 H   0  0  0  0  0  0  0  0  0  0  0  0
   -0.3214    4.9425    2.4921 H   0  0  0  0  0  0  0  0  0  0  0  0
   -0.3938    3.4857    3.5222 H   0  0  0  0  0  0  0  0  0  0  0  0
    0.9104    2.8488    1.6630 H   0  0  0  0  0  0  0  0  0  0  0  0
   -0.6646    2.0503    1.4026 H   0  0  0  0  0  0  0  0  0  0  0  0
    0.6159    3.3678   -0.5764 H   0  0  0  0  0  0  0  0  0  0  0  0
   -0.0312    4.8253    0.1817 H   0  0  0  0  0  0  0  0  0  0  0  0
   -0.4956    0.9784   -3.9820 H   0  0  0  0  0  0  0  0  0  0  0  0
   -1.9077    0.2882   -5.7607 H   0  0  0  0  0  0  0  0  0  0  0  0
   -2.1117    2.0584   -5.6871 H   0  0  0  0  0  0  0  0  0  0  0  0
   -4.4237    1.1617   -5.8625 H   0  0  0  0  0  0  0  0  0  0  0  0
   -5.4264    0.1142   -3.9694 H   0  0  0  0  0  0  0  0  0  0  0  0
   -3.9238   -1.0462   -2.3408 H   0  0  0  0  0  0  0  0  0  0  0  0
   -3.8622    0.7020   -1.9449 H   0  0  0  0  0  0  0  0  0  0  0  0
   -1.8037   -1.0110   -3.4679 H   0  0  0  0  0  0  0  0  0  0  0  0
   -1.5395   -0.4044    1.1010 H   0  0  0  0  0  0  0  0  0  0  0  0
   -1.9036   -0.7295    3.3578 H   0  0  0  0  0  0  0  0  0  0  0  0
   -1.0746   -1.6373    4.6545 H   0  0  0  0  0  0  0  0  0  0  0  0
    0.1392    0.4608    4.2477 H   0  0  0  0  0  0  0  0  0  0  0  0
    0.2661    0.0998    2.5000 H   0  0  0  0  0  0  0  0  0  0  0  0
    1.6124   -2.0211    3.1306 H   0  0  0  0  0  0  0  0  0  0  0  0
    1.5892   -1.4491    4.8258 H   0  0  0  0  0  0  0  0  0  0  0  0
    3.7229   -0.8421    3.5809 H   0  0  0  0  0  0  0  0  0  0  0  0
    2.8426    0.5629    4.2562 H   0  0  0  0  0  0  0  0  0  0  0  0
    3.4639   -2.2093    1.6871 H   0  0  0  0  0  0  0  0  0  0  0  0
    3.3199   -3.3196   -0.4767 H   0  0  0  0  0  0  0  0  0  0  0  0
    1.6548   -0.7792   -4.1686 H   0  0  0  0  0  0  0  0  0  0  0  0
    1.8997    0.3550   -2.2557 H   0  0  0  0  0  0  0  0  0  0  0  0
    2.0357    1.4486   -0.0799 H   0  0  0  0  0  0  0  0  0  0  0  0
  1  2  1  0
  2  3  1  0
  3  4  2  0
  4  5  1  0
  5  6  2  0
  6  7  1  0
  7  8  2  0
  8  9  1  0
  9 10  1  0
 10 11  1  0
 11 12  1  0
 12 13  1  0
 13 14  1  0
 14 15  1  0
 15 16  1  0
  9 17  1  0
 17 18  2  0
 17 19  1  0
 19 20  1  0
 20 21  1  0
 21 22  2  0
 22 23  1  0
 23 24  1  0
  6 25  1  0
 25 26  2  0
 26 27  1  0
 27 28  1  0
 28 29  1  0
 29 30  1  0
 30 31  1  0
 31 32  1  0
 32 33  1  0
 33 34  2  0
 34 35  1  0
 35 36  2  0
 36 37  1  0
 37 38  1  0
 38 39  2  0
 39 40  1  0
 40 41  1  0
 36 42  1  0
 42 43  2  0
 26  3  1  0
 43 33  1  0
 24  7  1  0
 41 37  2  0
 16 10  1  0
 24 19  1  0
  1 44  1  0
  1 45  1  0
  1 46  1  0
  4 47  1  0
  5 48  1  0
 10 49  1  0
 11 50  1  0
 11 51  1  0
 12 52  1  0
 12 53  1  0
 13 54  1  0
 13 55  1  0
 14 56  1  0
 14 57  1  0
 15 58  1  0
 15 59  1  0
 16 60  1  0
 16 61  1  0
 19 62  1  6
 20 63  1  0
 20 64  1  0
 21 65  1  0
 22 66  1  0
 23 67  1  0
 23 68  1  0
 24 69  1  6
 25 70  1  0
 28 71  1  0
 28 72  1  0
 29 73  1  0
 29 74  1  0
 30 75  1  0
 30 76  1  0
 31 77  1  0
 31 78  1  0
 34 79  1  0
 35 80  1  0
 41 81  1  0
 42 82  1  0
 43 83  1  0
M  CHG  2  40  -1  41   1
M  END
>  <UniqueID>  (5) 
4

>  <SMILES>  (5) 
COc1ccc(C2=NN(C3CCCCCC3)C(=O)[C@@H]3CC=CC[C@H]23)cc1OCCCCOc1ccc(-c2nn[n-][nH+]2)cc1

>  <Energy>  (5) 
120.45462877616383

>  <Genealogy>  (5) 
COc1ccc(C2=NN(C3CCCCCC3)C(=O)[C@@H]3CC=CC[C@H]23)cc1OCCCCOc1ccc(-c2nn[n-][nH+]2)cc1 (protonated)
COc1ccc(C2=NN(C3CCCCCC3)C(=O)[C@@H]3CC=CC[C@H]23)cc1OCCCCOc1ccc(-c2nn[n-][nH+]2)cc1 (3D coordinates assigned)
COc1ccc(C2=NN(C3CCCCCC3)C(=O)[C@@H]3CC=CC[C@H]23)cc1OCCCCOc1ccc(-c2nn[n-][nH+]2)cc1 (nonaromatic ring conformer: 120.45462877616383 kcal/mol)

$$$$
bc02
     RDKit          3D

 82 87  0  0  0  0  0  0  0  0999 V2000
    7.0525    2.5205   -0.0196 C   0  0  0  0  0  0  0  0  0  0  0  0
    5.9628    1.7078   -0.4426 O   0  0  0  0  0  0  0  0  0  0  0  0
    4.6687    1.7722    0.0997 C   0  0  0  0  0  0  0  0  0  0  0  0
    4.3294    2.6810    1.1177 C   0  0  0  0  0  0  0  0  0  0  0  0
    3.0354    2.7055    1.6414 C   0  0  0  0  0  0  0  0  0  0  0  0
    2.0450    1.8304    1.1596 C   0  0  0  0  0  0  0  0  0  0  0  0
    0.6830    1.8337    1.7735 C   0  0  0  0  0  0  0  0  0  0  0  0
    0.5275    2.3938    2.9420 N   0  0  0  0  0  0  0  0  0  0  0  0
   -0.7006    2.4101    3.6376 N   0  0  0  0  0  0  0  0  0  0  0  0
   -0.7360    2.9194    5.0175 C   0  0  0  0  0  0  0  0  0  0  0  0
    0.4892    2.4018    5.8094 C   0  0  0  0  0  0  0  0  0  0  0  0
    0.3063    2.5260    7.3322 C   0  0  0  0  0  0  0  0  0  0  0  0
    0.7551    3.8745    7.9275 C   0  0  0  0  0  0  0  0  0  0  0  0
    0.4741    5.1214    7.0724 C   0  0  0  0  0  0  0  0  0  0  0  0
   -0.8929    5.1103    6.3679 C   0  0  0  0  0  0  0  0  0  0  0  0
   -0.8214    4.4562    4.9789 C   0  0  0  0  0  0  0  0  0  0  0  0
   -1.9147    2.1079    2.9220 C   0  0  0  0  0  0  0  0  0  0  0  0
   -3.0364    2.1860    3.4929 O   0  0  0  0  0  0  0  0  0  0  0  0
   -1.8115    1.8145    1.4482 C   0  0  2  0  0  0  0  0  0  0  0  0
   -3.0119    1.0271    0.8827 C   0  0  0  0  0  0  0  0  0  0  0  0
   -2.9596   -0.4452    1.1967 C   0  0  0  0  0  0  0  0  0  0  0  0
   -1.8126   -1.0859    1.4625 C   0  0  0  0  0  0  0  0  0  0  0  0
   -0.5135   -0.3671    1.7164 C   0  0  0  0  0  0  0  0  0  0  0  0
   -0.4867    1.0771    1.1572 C   0  0  2  0  0  0  0  0  0  0  0  0
    2.3876    0.9375    0.1259 C   0  0  0  0  0  0  0  0  0  0  0  0
    3.6927    0.9000   -0.4025 C   0  0  0  0  0  0  0  0  0  0  0  0
    4.0648   -0.0008   -1.4168 O   0  0  0  0  0  0  0  0  0  0  0  0
    3.1613   -0.7516   -2.2303 C   0  0  0  0  0  0  0  0  0  0  0  0
    2.4597    0.1715   -3.2331 C   0  0  0  0  0  0  0  0  0  0  0  0
    1.3281   -0.5500   -3.9734 C   0  0  0  0  0  0  0  0  0  0  0  0
    0.7723    0.3239   -5.1047 C   0  0  0  0  0  0  0  0  0  0  0  0
   -0.4768   -0.1796   -5.5788 O   0  0  0  0  0  0  0  0  0  0  0  0
   -0.6527   -1.2819   -6.4299 C   0  0  0  0  0  0  0  0  0  0  0  0
   -1.9593   -1.6322   -6.7869 C   0  0  0  0  0  0  0  0  0  0  0  0
   -2.1997   -2.7079   -7.6446 C   0  0  0  0  0  0  0  0  0  0  0  0
   -1.1322   -3.4618   -8.1545 C   0  0  0  0  0  0  0  0  0  0  0  0
   -1.3873   -4.5932   -9.0689 C   0  0  0  0  0  0  0  0  0  0  0  0
   -2.5867   -4.8772   -9.6125 N   0  0  0  0  0  0  0  0  0  0  0  0
   -2.3701   -5.9387  -10.3719 N   0  0  0  0  0  0  0  0  0  0  0  0
   -1.0948   -6.2882  -10.2984 N   0  0  0  0  0  2  0  0  0  0  0  0
   -0.4489   -5.4630   -9.4893 N   0  0  0  0  0  0  0  0  0  0  0  0
    0.1805   -3.1185   -7.7917 C   0  0  0  0  0  0  0  0  0  0  0  0
    0.4216   -2.0333   -6.9428 C   0  0  0  0  0  0  0  0  0  0  0  0
    7.9550    2.2527   -0.6070 H   0  0  0  0  0  0  0  0  0  0  0  0
    7.2643    2.3434    1.0569 H   0  0  0  0  0  0  0  0  0  0  0  0
    6.8187    3.5919   -0.1963 H   0  0  0  0  0  0  0  0  0  0  0  0
    5.0584    3.3751    1.5149 H   0  0  0  0  0  0  0  0  0  0  0  0
    2.8102    3.4163    2.4264 H   0  0  0  0  0  0  0  0  0  0  0  0
   -1.6509    2.5303    5.5149 H   0  0  0  0  0  0  0  0  0  0  0  0
    1.4232    2.9083    5.4826 H   0  0  0  0  0  0  0  0  0  0  0  0
    0.6121    1.3200    5.5770 H   0  0  0  0  0  0  0  0  0  0  0  0
   -0.7523    2.3323    7.6110 H   0  0  0  0  0  0  0  0  0  0  0  0
    0.9033    1.7268    7.8243 H   0  0  0  0  0  0  0  0  0  0  0  0
    1.8482    3.8328    8.1263 H   0  0  0  0  0  0  0  0  0  0  0  0
    0.2586    3.9965    8.9164 H   0  0  0  0  0  0  0  0  0  0  0  0
    0.5202    6.0067    7.7434 H   0  0  0  0  0  0  0  0  0  0  0  0
    1.2937    5.2576    6.3328 H   0  0  0  0  0  0  0  0  0  0  0  0
   -1.2109    6.1663    6.2216 H   0  0  0  0  0  0  0  0  0  0  0  0
   -1.6706    4.6221    6.9959 H   0  0  0  0  0  0  0  0  0  0  0  0
   -1.7434    4.7351    4.4249 H   0  0  0  0  0  0  0  0  0  0  0  0
    0.0339    4.8717    4.4020 H   0  0  0  0  0  0  0  0  0  0  0  0
   -1.7851    2.7961    0.9273 H   0  0  0  0  0  0  0  0  0  0  0  0
   -3.9720    1.4500    1.2501 H   0  0  0  0  0  0  0  0  0  0  0  0
   -3.0171    1.1331   -0.2247 H   0  0  0  0  0  0  0  0  0  0  0  0
   -3.8649   -1.0326    1.0675 H   0  0  0  0  0  0  0  0  0  0  0  0
   -1.8419   -2.1613    1.6234 H   0  0  0  0  0  0  0  0  0  0  0  0
   -0.3479   -0.3573    2.8153 H   0  0  0  0  0  0  0  0  0  0  0  0
    0.3053   -0.9606    1.2606 H   0  0  0  0  0  0  0  0  0  0  0  0
   -0.3817    1.0398    0.0513 H   0  0  0  0  0  0  0  0  0  0  0  0
    1.6535    0.2465   -0.2477 H   0  0  0  0  0  0  0  0  0  0  0  0
    3.7482   -1.5061   -2.7940 H   0  0  0  0  0  0  0  0  0  0  0  0
    2.4386   -1.3101   -1.6023 H   0  0  0  0  0  0  0  0  0  0  0  0
    3.2155    0.5360   -3.9623 H   0  0  0  0  0  0  0  0  0  0  0  0
    2.0363    1.0515   -2.7032 H   0  0  0  0  0  0  0  0  0  0  0  0
    1.7056   -1.5059   -4.3918 H   0  0  0  0  0  0  0  0  0  0  0  0
    0.5116   -0.7803   -3.2552 H   0  0  0  0  0  0  0  0  0  0  0  0
    1.4997    0.4119   -5.9364 H   0  0  0  0  0  0  0  0  0  0  0  0
    0.5934    1.3499   -4.7180 H   0  0  0  0  0  0  0  0  0  0  0  0
   -2.7951   -1.0624   -6.4018 H   0  0  0  0  0  0  0  0  0  0  0  0
   -3.2222   -2.9507   -7.9039 H   0  0  0  0  0  0  0  0  0  0  0  0
    1.0222   -3.6822   -8.1748 H   0  0  0  0  0  0  0  0  0  0  0  0
    1.4462   -1.7858   -6.7034 H   0  0  0  0  0  0  0  0  0  0  0  0
  1  2  1  0
  2  3  1  0
  3  4  2  0
  4  5  1  0
  5  6  2  0
  6  7  1  0
  7  8  2  0
  8  9  1  0
  9 10  1  0
 10 11  1  0
 11 12  1  0
 12 13  1  0
 13 14  1  0
 14 15  1  0
 15 16  1  0
  9 17  1  0
 17 18  2  0
 17 19  1  0
 19 20  1  0
 20 21  1  0
 21 22  2  0
 22 23  1  0
 23 24  1  0
  6 25  1  0
 25 26  2  0
 26 27  1  0
 27 28  1  0
 28 29  1  0
 29 30  1  0
 30 31  1  0
 31 32  1  0
 32 33  1  0
 33 34  2  0
 34 35  1  0
 35 36  2  0
 36 37  1  0
 37 38  1  0
 38 39  2  0
 39 40  1  0
 40 41  1  0
 36 42  1  0
 42 43  2  0
 26  3  1  0
 43 33  1  0
 24  7  1  0
 41 37  2  0
 16 10  1  0
 24 19  1  0
  1 44  1  0
  1 45  1  0
  1 46  1  0
  4 47  1  0
  5 48  1  0
 10 49  1  0
 11 50  1  0
 11 51  1  0
 12 52  1  0
 12 53  1  0
 13 54  1  0
 13 55  1  0
 14 56  1  0
 14 57  1  0
 15 58  1  0
 15 59  1  0
 16 60  1  0
 16 61  1  0
 19 62  1  6
 20 63  1  0
 20 64  1  0
 21 65  1  0
 22 66  1  0
 23 67  1  0
 23 68  1  0
 24 69  1  6
 25 70  1  0
 28 71  1  0
 28 72  1  0
 29 73  1  0
 29 74  1  0
 30 75  1  0
 30 76  1  0
 31 77  1  0
 31 78  1  0
 34 79  1  0
 35 80  1  0
 42 81  1  0
 43 82  1  0
M  CHG  1  40  -1
M  END
>  <UniqueID>  (6) 
5

>  <SMILES>  (6) 
COc1ccc(C2=NN(C3CCCCCC3)C(=O)[C@@H]3CC=CC[C@H]23)cc1OCCCCOc1ccc(-c2nn[n-]n2)cc1

>  <Energy>  (6) 
128.2170843437416

>  <Genealogy>  (6) 
COc1ccc(C2=NN(C3CCCCCC3)C(=O)[C@@H]3CC=CC[C@H]23)cc1OCCCCOc1ccc(-c2nn[n-]n2)cc1 (protonated)
COc1ccc(C2=NN(C3CCCCCC3)C(=O)[C@@H]3CC=CC[C@H]23)cc1OCCCCOc1ccc(-c2nn[n-]n2)cc1 (3D coordinates assigned)
COc1ccc(C2=NN(C3CCCCCC3)C(=O)[C@@H]3CC=CC[C@H]23)cc1OCCCCOc1ccc(-c2nn[n-]n2)cc1 (nonaromatic ring conformer: 128.2170843437416 kcal/mol)

$$$$
bc02
     RDKit          3D

 84 89  0  0  0  0  0  0  0  0999 V2000
   -1.0089    1.4519   -6.7664 C   0  0  0  0  0  0  0  0  0  0  0  0
   -1.0820    2.1704   -5.5397 O   0  0  0  0  0  0  0  0  0  0  0  0
   -1.1476    1.5739   -4.2703 C   0  0  0  0  0  0  0  0  0  0  0  0
   -1.1566    0.1804   -4.0985 C   0  0  0  0  0  0  0  0  0  0  0  0
   -1.2085   -0.3747   -2.8195 C   0  0  0  0  0  0  0  0  0  0  0  0
   -1.2745    0.4465   -1.6794 C   0  0  0  0  0  0  0  0  0  0  0  0
   -1.3606   -0.1726   -0.3246 C   0  0  0  0  0  0  0  0  0  0  0  0
   -1.7046   -1.4283   -0.2331 N   0  0  0  0  0  0  0  0  0  0  0  0
   -1.8327   -2.1100    0.9946 N   0  0  0  0  0  0  0  0  0  0  0  0
   -2.4931   -3.4243    1.0105 C   0  0  0  0  0  0  0  0  0  0  0  0
   -1.7009   -4.4296    0.1371 C   0  0  0  0  0  0  0  0  0  0  0  0
   -2.1405   -4.5165   -1.3361 C   0  0  0  0  0  0  0  0  0  0  0  0
   -3.2908   -5.5148   -1.5434 C   0  0  0  0  0  0  0  0  0  0  0  0
   -4.6578   -4.9744   -1.1079 C   0  0  0  0  0  0  0  0  0  0  0  0
   -4.7179   -4.5738    0.3745 C   0  0  0  0  0  0  0  0  0  0  0  0
   -3.9842   -3.2508    0.6481 C   0  0  0  0  0  0  0  0  0  0  0  0
   -1.2789   -1.5185    2.1856 C   0  0  0  0  0  0  0  0  0  0  0  0
   -1.3615   -2.1020    3.3019 O   0  0  0  0  0  0  0  0  0  0  0  0
   -0.5234   -0.2242    2.0420 C   0  0  2  0  0  0  0  0  0  0  0  0
   -0.3919    0.5751    3.3532 C   0  0  0  0  0  0  0  0  0  0  0  0
   -1.6654    1.2717    3.7478 C   0  0  0  0  0  0  0  0  0  0  0  0
   -2.5893    1.6373    2.8473 C   0  0  0  0  0  0  0  0  0  0  0  0
   -2.5661    1.1705    1.4138 C   0  0  0  0  0  0  0  0  0  0  0  0
   -1.1859    0.6411    0.9506 C   0  0  2  0  0  0  0  0  0  0  0  0
   -1.2744    1.8425   -1.8592 C   0  0  0  0  0  0  0  0  0  0  0  0
   -1.1894    2.4070   -3.1455 C   0  0  0  0  0  0  0  0  0  0  0  0
   -1.1360    3.7965   -3.3471 O   0  0  0  0  0  0  0  0  0  0  0  0
   -0.7059    4.7549   -2.3766 C   0  0  0  0  0  0  0  0  0  0  0  0
    0.7572    4.5225   -1.9715 C   0  0  0  0  0  0  0  0  0  0  0  0
    1.6943    4.5317   -3.1881 C   0  0  0  0  0  0  0  0  0  0  0  0
    3.1478    4.2229   -2.8165 C   0  0  0  0  0  0  0  0  0  0  0  0
    3.3091    2.8392   -2.4900 O   0  0  0  0  0  0  0  0  0  0  0  0
    3.2238    2.2620   -1.2114 C   0  0  0  0  0  0  0  0  0  0  0  0
    3.1806    3.0164   -0.0245 C   0  0  0  0  0  0  0  0  0  0  0  0
    3.1345    2.3764    1.2184 C   0  0  0  0  0  0  0  0  0  0  0  0
    3.1321    0.9721    1.3070 C   0  0  0  0  0  0  0  0  0  0  0  0
    3.1209    0.2913    2.6306 C   0  0  0  0  0  0  0  0  0  0  0  0
    3.2052   -1.0397    2.8284 N   0  0  0  0  0  4  0  0  0  0  0  0
    3.1417   -1.2264    4.1371 N   0  0  0  0  0  0  0  0  0  0  0  0
    3.0234   -0.0520    4.7397 N   0  0  0  0  0  2  0  0  0  0  0  0
    3.0108    0.9055    3.8267 N   0  0  0  0  0  4  0  0  0  0  0  0
    3.1468    0.2251    0.1151 C   0  0  0  0  0  0  0  0  0  0  0  0
    3.1965    0.8666   -1.1259 C   0  0  0  0  0  0  0  0  0  0  0  0
   -0.0911    0.8263   -6.7864 H   0  0  0  0  0  0  0  0  0  0  0  0
   -1.9107    0.8140   -6.8897 H   0  0  0  0  0  0  0  0  0  0  0  0
   -0.9649    2.1738   -7.6082 H   0  0  0  0  0  0  0  0  0  0  0  0
   -1.1158   -0.4860   -4.9485 H   0  0  0  0  0  0  0  0  0  0  0  0
   -1.1992   -1.4529   -2.7273 H   0  0  0  0  0  0  0  0  0  0  0  0
   -2.4722   -3.8381    2.0432 H   0  0  0  0  0  0  0  0  0  0  0  0
   -1.7560   -5.4390    0.6012 H   0  0  0  0  0  0  0  0  0  0  0  0
   -0.6236   -4.1528    0.1671 H   0  0  0  0  0  0  0  0  0  0  0  0
   -1.2720   -4.8821   -1.9271 H   0  0  0  0  0  0  0  0  0  0  0  0
   -2.4068   -3.5189   -1.7435 H   0  0  0  0  0  0  0  0  0  0  0  0
   -3.3508   -5.7541   -2.6282 H   0  0  0  0  0  0  0  0  0  0  0  0
   -3.0759   -6.4715   -1.0179 H   0  0  0  0  0  0  0  0  0  0  0  0
   -5.4117   -5.7726   -1.2845 H   0  0  0  0  0  0  0  0  0  0  0  0
   -4.9436   -4.1142   -1.7522 H   0  0  0  0  0  0  0  0  0  0  0  0
   -5.7891   -4.4332    0.6379 H   0  0  0  0  0  0  0  0  0  0  0  0
   -4.3284   -5.3896    1.0219 H   0  0  0  0  0  0  0  0  0  0  0  0
   -4.4802   -2.7472    1.5067 H   0  0  0  0  0  0  0  0  0  0  0  0
   -4.1026   -2.5606   -0.2151 H   0  0  0  0  0  0  0  0  0  0  0  0
    0.5013   -0.4887    1.7026 H   0  0  0  0  0  0  0  0  0  0  0  0
    0.3815    1.3599    3.2125 H   0  0  0  0  0  0  0  0  0  0  0  0
   -0.0486   -0.0808    4.1813 H   0  0  0  0  0  0  0  0  0  0  0  0
   -1.7773    1.5975    4.7780 H   0  0  0  0  0  0  0  0  0  0  0  0
   -3.4605    2.1880    3.1884 H   0  0  0  0  0  0  0  0  0  0  0  0
   -3.3354    0.3730    1.3145 H   0  0  0  0  0  0  0  0  0  0  0  0
   -2.8795    2.0129    0.7626 H   0  0  0  0  0  0  0  0  0  0  0  0
   -0.5042    1.5013    0.7681 H   0  0  0  0  0  0  0  0  0  0  0  0
   -1.3576    2.4972   -1.0106 H   0  0  0  0  0  0  0  0  0  0  0  0
   -0.8024    5.7695   -2.8183 H   0  0  0  0  0  0  0  0  0  0  0  0
   -1.3642    4.7208   -1.4828 H   0  0  0  0  0  0  0  0  0  0  0  0
    1.0641    5.3207   -1.2615 H   0  0  0  0  0  0  0  0  0  0  0  0
    0.8325    3.5517   -1.4442 H   0  0  0  0  0  0  0  0  0  0  0  0
    1.3586    3.7819   -3.9390 H   0  0  0  0  0  0  0  0  0  0  0  0
    1.6529    5.5346   -3.6671 H   0  0  0  0  0  0  0  0  0  0  0  0
    3.7691    4.4261   -3.7139 H   0  0  0  0  0  0  0  0  0  0  0  0
    3.5255    4.8991   -2.0234 H   0  0  0  0  0  0  0  0  0  0  0  0
    3.1905    4.0962   -0.0367 H   0  0  0  0  0  0  0  0  0  0  0  0
    3.1166    2.9921    2.1049 H   0  0  0  0  0  0  0  0  0  0  0  0
    3.3060   -1.8069    2.1279 H   0  0  0  0  0  0  0  0  0  0  0  0
    2.9152    1.9227    4.0404 H   0  0  0  0  0  0  0  0  0  0  0  0
    3.1252   -0.8549    0.1295 H   0  0  0  0  0  0  0  0  0  0  0  0
    3.2130    0.2723   -2.0307 H   0  0  0  0  0  0  0  0  0  0  0  0
  1  2  1  0
  2  3  1  0
  3  4  2  0
  4  5  1  0
  5  6  2  0
  6  7  1  0
  7  8  2  0
  8  9  1  0
  9 10  1  0
 10 11  1  0
 11 12  1  0
 12 13  1  0
 13 14  1  0
 14 15  1  0
 15 16  1  0
  9 17  1  0
 17 18  2  0
 17 19  1  0
 19 20  1  0
 20 21  1  0
 21 22  2  0
 22 23  1  0
 23 24  1  0
  6 25  1  0
 25 26  2  0
 26 27  1  0
 27 28  1  0
 28 29  1  0
 29 30  1  0
 30 31  1  0
 31 32  1  0
 32 33  1  0
 33 34  2  0
 34 35  1  0
 35 36  2  0
 36 37  1  0
 37 38  1  0
 38 39  2  0
 39 40  1  0
 40 41  1  0
 36 42  1  0
 42 43  2  0
 26  3  1  0
 43 33  1  0
 24  7  1  0
 41 37  2  0
 16 10  1  0
 24 19  1  0
  1 44  1  0
  1 45  1  0
  1 46  1  0
  4 47  1  0
  5 48  1  0
 10 49  1  0
 11 50  1  0
 11 51  1  0
 12 52  1  0
 12 53  1  0
 13 54  1  0
 13 55  1  0
 14 56  1  0
 14 57  1  0
 15 58  1  0
 15 59  1  0
 16 60  1  0
 16 61  1  0
 19 62  1  6
 20 63  1  0
 20 64  1  0
 21 65  1  0
 22 66  1  0
 23 67  1  0
 23 68  1  0
 24 69  1  6
 25 70  1  0
 28 71  1  0
 28 72  1  0
 29 73  1  0
 29 74  1  0
 30 75  1  0
 30 76  1  0
 31 77  1  0
 31 78  1  0
 34 79  1  0
 35 80  1  0
 38 81  1  0
 41 82  1  0
 42 83  1  0
 43 84  1  0
M  CHG  3  38   1  40  -1  41   1
M  END
>  <UniqueID>  (7) 
6

>  <SMILES>  (7) 
COc1ccc(C2=NN(C3CCCCCC3)C(=O)[C@@H]3CC=CC[C@H]23)cc1OCCCCOc1ccc(-c2[nH+]n[n-][nH+]2)cc1

>  <Energy>  (7) 
129.47599564110635

>  <Genealogy>  (7) 
COc1ccc(C2=NN(C3CCCCCC3)C(=O)[C@@H]3CC=CC[C@H]23)cc1OCCCCOc1ccc(-c2[nH+]n[n-][nH+]2)cc1 (protonated)
COc1ccc(C2=NN(C3CCCCCC3)C(=O)[C@@H]3CC=CC[C@H]23)cc1OCCCCOc1ccc(-c2[nH+]n[n-][nH+]2)cc1 (3D coordinates assigned)
COc1ccc(C2=NN(C3CCCCCC3)C(=O)[C@@H]3CC=CC[C@H]23)cc1OCCCCOc1ccc(-c2[nH+]n[n-][nH+]2)cc1 (nonaromatic ring conformer: 129.47599564110635 kcal/mol)

$$$$
