EMPTY MOLECULE DESCRIBING GYPSUM-DL PARAMETERS
     RDKit          2D

  0  0  0  0  0  0  0  0  0  0999 V2000
M  END
>  <source>  (1) 
/Users/jake/Desktop/galene/data/lig/bc02_ac05.smi

>  <output_folder>  (1) 
data/lig

>  <separate_output_files>  (1) 
False

>  <add_pdb_output>  (1) 
False

>  <add_html_output>  (1) 
False

>  <num_processors>  (1) 
-1

>  <start_time>  (1) 
0

>  <end_time>  (1) 
0

>  <run_time>  (1) 
0

>  <min_ph>  (1) 
-6.0

>  <max_ph>  (1) 
-8.0

>  <pka_precision>  (1) 
1.0

>  <thoroughness>  (1) 
3

>  <max_variants_per_compound>  (1) 
3

>  <second_embed>  (1) 
False

>  <2d_output_only>  (1) 
False

>  <skip_optimize_geometry>  (1) 
False

>  <skip_alternate_ring_conformations>  (1) 
False

>  <skip_adding_hydrogen>  (1) 
False

>  <skip_making_tautomers>  (1) 
False

>  <skip_enumerate_chiral_mol>  (1) 
False

>  <skip_enumerate_double_bonds>  (1) 
False

>  <let_tautomers_change_chirality>  (1) 
False

>  <use_durrant_lab_filters>  (1) 
False

>  <job_manager>  (1) 
multiprocessing

>  <cache_prerun>  (1) 
False

>  <test>  (1) 
False

>  <Parallelizer>  (1) 
<gypsum_dl.Parallelizer.Parallelizer object at 0x81703fd30>

$$$$
ac05
     RDKit          3D

 82 86  0  0  0  0  0  0  0  0999 V2000
   -0.7445   -1.7573   -7.5606 C   0  0  0  0  0  0  0  0  0  0  0  0
   -0.7918   -1.6700   -6.1398 O   0  0  0  0  0  0  0  0  0  0  0  0
   -0.9536   -0.4747   -5.4211 C   0  0  0  0  0  0  0  0  0  0  0  0
   -1.1054    0.7693   -6.0610 C   0  0  0  0  0  0  0  0  0  0  0  0
   -1.2599    1.9400   -5.3146 C   0  0  0  0  0  0  0  0  0  0  0  0
   -1.2711    1.8972   -3.9106 C   0  0  0  0  0  0  0  0  0  0  0  0
   -1.3827    3.1224   -3.0655 C   0  0  0  0  0  0  0  0  0  0  0  0
   -1.3363    3.0402   -1.7744 N   0  0  0  0  0  0  0  0  0  0  0  0
   -1.4222    4.3082   -1.2047 N   0  0  0  0  0  4  0  0  0  0  0  0
   -1.3600    4.5416    0.2439 C   0  0  0  0  0  0  0  0  0  0  0  0
   -2.6369    3.9800    0.9068 C   0  0  0  0  0  0  0  0  0  0  0  0
   -2.5470    3.8563    2.4384 C   0  0  0  0  0  0  0  0  0  0  0  0
   -2.0077    2.4847    2.8782 C   0  0  0  0  0  0  0  0  0  0  0  0
   -0.4972    2.3183    2.6738 C   0  0  0  0  0  0  0  0  0  0  0  0
   -0.0463    2.5097    1.2176 C   0  0  0  0  0  0  0  0  0  0  0  0
   -0.0242    3.9945    0.8054 C   0  0  0  0  0  0  0  0  0  0  0  0
   -1.5295    5.2015   -2.1309 C   0  0  0  0  0  0  0  0  0  0  0  0
   -1.6403    6.5670   -1.8690 O   0  0  0  0  0  0  0  0  0  0  0  0
   -1.5086    4.5761   -3.4994 C   0  0  0  0  0  0  0  0  0  0  0  0
   -2.8313    4.8644   -4.2274 C   0  0  0  0  0  0  0  0  0  0  0  0
   -0.2762    5.0739   -4.2737 C   0  0  0  0  0  0  0  0  0  0  0  0
   -1.1451    0.6457   -3.2784 C   0  0  0  0  0  0  0  0  0  0  0  0
   -0.9642   -0.5359   -4.0212 C   0  0  0  0  0  0  0  0  0  0  0  0
   -0.7890   -1.7889   -3.4048 O   0  0  0  0  0  0  0  0  0  0  0  0
   -0.7302   -2.0171   -1.9950 C   0  0  0  0  0  0  0  0  0  0  0  0
    0.6135   -1.5514   -1.4174 C   0  0  0  0  0  0  0  0  0  0  0  0
    0.6102   -1.6385    0.1127 C   0  0  0  0  0  0  0  0  0  0  0  0
    1.9317   -1.1326    0.6988 C   0  0  0  0  0  0  0  0  0  0  0  0
    1.9219   -1.2445    2.1225 O   0  0  0  0  0  0  0  0  0  0  0  0
    2.0643   -2.4422    2.8438 C   0  0  0  0  0  0  0  0  0  0  0  0
    2.3782   -3.6694    2.2286 C   0  0  0  0  0  0  0  0  0  0  0  0
    2.5063   -4.8324    2.9947 C   0  0  0  0  0  0  0  0  0  0  0  0
    2.3294   -4.7934    4.3887 C   0  0  0  0  0  0  0  0  0  0  0  0
    2.4669   -6.0269    5.2012 C   0  0  0  0  0  0  0  0  0  0  0  0
    2.6715   -6.0639    6.5365 N   0  0  0  0  0  4  0  0  0  0  0  0
    2.7425   -7.3466    6.8531 N   0  0  0  0  0  0  0  0  0  0  0  0
    2.5873   -8.0797    5.7645 N   0  0  0  0  0  4  0  0  0  0  0  0
    2.4145   -7.2879    4.7189 N   0  0  0  0  0  4  0  0  0  0  0  0
    2.0209   -3.5648    4.9991 C   0  0  0  0  0  0  0  0  0  0  0  0
    1.8912   -2.4031    4.2311 C   0  0  0  0  0  0  0  0  0  0  0  0
   -0.6171   -2.8203   -7.8530 H   0  0  0  0  0  0  0  0  0  0  0  0
   -1.6929   -1.3777   -7.9988 H   0  0  0  0  0  0  0  0  0  0  0  0
    0.1186   -1.1753   -7.9508 H   0  0  0  0  0  0  0  0  0  0  0  0
   -1.1003    0.8440   -7.1398 H   0  0  0  0  0  0  0  0  0  0  0  0
   -1.3665    2.8644   -5.8539 H   0  0  0  0  0  0  0  0  0  0  0  0
   -1.3502    5.6384    0.4378 H   0  0  0  0  0  0  0  0  0  0  0  0
   -3.4749    4.6699    0.6588 H   0  0  0  0  0  0  0  0  0  0  0  0
   -2.9073    2.9970    0.4594 H   0  0  0  0  0  0  0  0  0  0  0  0
   -3.5745    3.9580    2.8513 H   0  0  0  0  0  0  0  0  0  0  0  0
   -1.9414    4.6799    2.8762 H   0  0  0  0  0  0  0  0  0  0  0  0
   -2.5497    1.6684    2.3507 H   0  0  0  0  0  0  0  0  0  0  0  0
   -2.2174    2.3608    3.9633 H   0  0  0  0  0  0  0  0  0  0  0  0
   -0.2228    1.2857    2.9871 H   0  0  0  0  0  0  0  0  0  0  0  0
    0.0525    3.0145    3.3454 H   0  0  0  0  0  0  0  0  0  0  0  0
   -0.6691    1.8990    0.5292 H   0  0  0  0  0  0  0  0  0  0  0  0
    0.9920    2.1213    1.1395 H   0  0  0  0  0  0  0  0  0  0  0  0
    0.7656    4.1335    0.0337 H   0  0  0  0  0  0  0  0  0  0  0  0
    0.2959    4.6214    1.6677 H   0  0  0  0  0  0  0  0  0  0  0  0
   -1.7228    7.2394   -2.6216 H   0  0  0  0  0  0  0  0  0  0  0  0
   -2.8653    4.3775   -5.2215 H   0  0  0  0  0  0  0  0  0  0  0  0
   -3.6940    4.4974   -3.6286 H   0  0  0  0  0  0  0  0  0  0  0  0
   -2.9524    5.9581   -4.3854 H   0  0  0  0  0  0  0  0  0  0  0  0
    0.6600    4.7713   -3.7541 H   0  0  0  0  0  0  0  0  0  0  0  0
   -0.2906    6.1829   -4.3490 H   0  0  0  0  0  0  0  0  0  0  0  0
   -0.2481    4.6741   -5.3051 H   0  0  0  0  0  0  0  0  0  0  0  0
   -1.1788    0.5973   -2.1996 H   0  0  0  0  0  0  0  0  0  0  0  0
   -1.5864   -1.5207   -1.4883 H   0  0  0  0  0  0  0  0  0  0  0  0
   -0.8335   -3.1084   -1.8161 H   0  0  0  0  0  0  0  0  0  0  0  0
    0.8218   -0.5039   -1.7203 H   0  0  0  0  0  0  0  0  0  0  0  0
    1.4241   -2.1939   -1.8270 H   0  0  0  0  0  0  0  0  0  0  0  0
    0.4362   -2.6920    0.4199 H   0  0  0  0  0  0  0  0  0  0  0  0
   -0.2178   -1.0170    0.5202 H   0  0  0  0  0  0  0  0  0  0  0  0
    2.8025   -1.6735    0.2694 H   0  0  0  0  0  0  0  0  0  0  0  0
    2.0512   -0.0593    0.4380 H   0  0  0  0  0  0  0  0  0  0  0  0
    2.5317   -3.7394    1.1610 H   0  0  0  0  0  0  0  0  0  0  0  0
    2.7609   -5.7562    2.4917 H   0  0  0  0  0  0  0  0  0  0  0  0
    2.7812   -5.2712    7.2074 H   0  0  0  0  0  0  0  0  0  0  0  0
    2.9029   -7.7216    7.8147 H   0  0  0  0  0  0  0  0  0  0  0  0
    2.6002   -9.1235    5.7337 H   0  0  0  0  0  0  0  0  0  0  0  0
    2.2552   -7.6114    3.7392 H   0  0  0  0  0  0  0  0  0  0  0  0
    1.8611   -3.4986    6.0671 H   0  0  0  0  0  0  0  0  0  0  0  0
    1.6477   -1.4665    4.7180 H   0  0  0  0  0  0  0  0  0  0  0  0
  1  2  1  0
  2  3  1  0
  3  4  2  0
  4  5  1  0
  5  6  2  0
  6  7  1  0
  7  8  2  0
  8  9  1  0
  9 10  1  0
 10 11  1  0
 11 12  1  0
 12 13  1  0
 13 14  1  0
 14 15  1  0
 15 16  1  0
  9 17  2  0
 17 18  1  0
 17 19  1  0
 19 20  1  0
 19 21  1  0
  6 22  1  0
 22 23  2  0
 23 24  1  0
 24 25  1  0
 25 26  1  0
 26 27  1  0
 27 28  1  0
 28 29  1  0
 29 30  1  0
 30 31  2  0
 31 32  1  0
 32 33  2  0
 33 34  1  0
 34 35  2  0
 35 36  1  0
 36 37  1  0
 37 38  2  0
 33 39  1  0
 39 40  2  0
 23  3  1  0
 40 30  1  0
 19  7  1  0
 38 34  1  0
 16 10  1  0
  1 41  1  0
  1 42  1  0
  1 43  1  0
  4 44  1  0
  5 45  1  0
 10 46  1  0
 11 47  1  0
 11 48  1  0
 12 49  1  0
 12 50  1  0
 13 51  1  0
 13 52  1  0
 14 53  1  0
 14 54  1  0
 15 55  1  0
 15 56  1  0
 16 57  1  0
 16 58  1  0
 18 59  1  0
 20 60  1  0
 20 61  1  0
 20 62  1  0
 21 63  1  0
 21 64  1  0
 21 65  1  0
 22 66  1  0
 25 67  1  0
 25 68  1  0
 26 69  1  0
 26 70  1  0
 27 71  1  0
 27 72  1  0
 28 73  1  0
 28 74  1  0
 31 75  1  0
 32 76  1  0
 35 77  1  0
 36 78  1  0
 37 79  1  0
 38 80  1  0
 39 81  1  0
 40 82  1  0
M  CHG  4   9   1  35   1  37   1  38   1
M  END
>  <UniqueID>  (2) 
1

>  <SMILES>  (2) 
COc1ccc(C2=N[N+](C3CCCCCC3)=C(O)C2(C)C)cc1OCCCCOc1ccc(-c2[nH+][nH][nH+][nH+]2)cc1

>  <Energy>  (2) 
140.8476269083402

>  <Genealogy>  (2) 
COc1ccc(C2=N[NH+](C3CCCCCC3)C(=O)C2(C)C)cc1OCCCCOc1ccc(-c2[nH+][nH][nH+][nH+]2)cc1 (protonated)
COc1ccc(C2=N[N+](C3CCCCCC3)=C(O)C2(C)C)cc1OCCCCOc1ccc(-c2[nH+][nH][nH+][nH+]2)cc1 (tautomer)
COc1ccc(C2=N[N+](C3CCCCCC3)=C(O)C2(C)C)cc1OCCCCOc1ccc(-c2[nH+][nH][nH+][nH+]2)cc1 (3D coordinates assigned)
COc1ccc(C2=N[N+](C3CCCCCC3)=C(O)C2(C)C)cc1OCCCCOc1ccc(-c2[nH+][nH][nH+][nH+]2)cc1 (nonaromatic ring conformer: 140.8476269083402 kcal/mol)

$$$$
ac05
     RDKit          3D

 82 86  0  0  0  0  0  0  0  0999 V2000
   -1.1480    0.2882   -8.0089 C   0  0  0  0  0  0  0  0  0  0  0  0
   -0.6088   -0.3069   -6.8343 O   0  0  0  0  0  0  0  0  0  0  0  0
   -0.5938    0.3038   -5.5682 C   0  0  0  0  0  0  0  0  0  0  0  0
   -1.0678    1.6097   -5.3626 C   0  0  0  0  0  0  0  0  0  0  0  0
   -1.0653    2.1724   -4.0838 C   0  0  0  0  0  0  0  0  0  0  0  0
   -0.5962    1.4420   -2.9775 C   0  0  0  0  0  0  0  0  0  0  0  0
   -0.7109    2.0171   -1.6087 C   0  0  0  0  0  0  0  0  0  0  0  0
   -0.9835    3.2713   -1.4282 N   0  0  0  0  0  0  0  0  0  0  0  0
   -1.2542    3.5084   -0.0799 N   0  0  0  0  0  4  0  0  0  0  0  0
   -1.5983    4.8223    0.4849 C   0  0  0  0  0  0  0  0  0  0  0  0
   -2.1176    5.7917   -0.6128 C   0  0  0  0  0  0  0  0  0  0  0  0
   -3.1331    6.8095   -0.0651 C   0  0  0  0  0  0  0  0  0  0  0  0
   -2.5032    7.9497    0.7395 C   0  0  0  0  0  0  0  0  0  0  0  0
   -1.7075    7.4664    1.9639 C   0  0  0  0  0  0  0  0  0  0  0  0
   -0.3487    6.8750    1.5614 C   0  0  0  0  0  0  0  0  0  0  0  0
   -0.3840    5.3609    1.2910 C   0  0  0  0  0  0  0  0  0  0  0  0
   -1.1570    2.4074    0.5921 C   0  0  0  0  0  0  0  0  0  0  0  0
   -1.3907    2.3288    1.9629 O   0  0  0  0  0  0  0  0  0  0  0  0
   -0.7590    1.2574   -0.2872 C   0  0  0  0  0  0  0  0  0  0  0  0
    0.6169    0.7297    0.1586 C   0  0  0  0  0  0  0  0  0  0  0  0
   -1.8486    0.1678   -0.2758 C   0  0  0  0  0  0  0  0  0  0  0  0
   -0.0792    0.1550   -3.1969 C   0  0  0  0  0  0  0  0  0  0  0  0
   -0.0885   -0.4254   -4.4808 C   0  0  0  0  0  0  0  0  0  0  0  0
    0.3915   -1.7286   -4.7226 O   0  0  0  0  0  0  0  0  0  0  0  0
    0.9380   -2.6065   -3.7360 C   0  0  0  0  0  0  0  0  0  0  0  0
   -0.1782   -3.2301   -2.8847 C   0  0  0  0  0  0  0  0  0  0  0  0
    0.4133   -4.0678   -1.7435 C   0  0  0  0  0  0  0  0  0  0  0  0
   -0.6844   -4.6145   -0.8262 C   0  0  0  0  0  0  0  0  0  0  0  0
   -0.1278   -5.5143    0.1320 O   0  0  0  0  0  0  0  0  0  0  0  0
    0.5820   -5.1443    1.2870 C   0  0  0  0  0  0  0  0  0  0  0  0
    0.7267   -3.8078    1.7054 C   0  0  0  0  0  0  0  0  0  0  0  0
    1.4251   -3.5065    2.8803 C   0  0  0  0  0  0  0  0  0  0  0  0
    1.9996   -4.5292    3.6591 C   0  0  0  0  0  0  0  0  0  0  0  0
    2.7276   -4.2117    4.9219 C   0  0  0  0  0  0  0  0  0  0  0  0
    3.0464   -5.1045    5.8844 N   0  0  0  0  0  4  0  0  0  0  0  0
    3.6752   -4.4152    6.8215 N   0  0  0  0  0  0  0  0  0  0  0  0
    3.7509   -3.1444    6.4627 N   0  0  0  0  0  4  0  0  0  0  0  0
    3.1679   -2.9861    5.2861 N   0  0  0  0  0  4  0  0  0  0  0  0
    1.8630   -5.8597    3.2242 C   0  0  0  0  0  0  0  0  0  0  0  0
    1.1591   -6.1612    2.0541 C   0  0  0  0  0  0  0  0  0  0  0  0
   -2.2154    0.5385   -7.8470 H   0  0  0  0  0  0  0  0  0  0  0  0
   -0.5769    1.2022   -8.2724 H   0  0  0  0  0  0  0  0  0  0  0  0
   -1.0754   -0.4336   -8.8456 H   0  0  0  0  0  0  0  0  0  0  0  0
   -1.4490    2.1975   -6.1876 H   0  0  0  0  0  0  0  0  0  0  0  0
   -1.4502    3.1741   -3.9622 H   0  0  0  0  0  0  0  0  0  0  0  0
   -2.4351    4.6509    1.2072 H   0  0  0  0  0  0  0  0  0  0  0  0
   -2.6653    5.2044   -1.3816 H   0  0  0  0  0  0  0  0  0  0  0  0
   -1.2717    6.3029   -1.1322 H   0  0  0  0  0  0  0  0  0  0  0  0
   -3.6711    7.2691   -0.9224 H   0  0  0  0  0  0  0  0  0  0  0  0
   -3.9054    6.2957    0.5571 H   0  0  0  0  0  0  0  0  0  0  0  0
   -1.8564    8.5712    0.0747 H   0  0  0  0  0  0  0  0  0  0  0  0
   -3.3190    8.6134    1.0923 H   0  0  0  0  0  0  0  0  0  0  0  0
   -1.5176    8.3501    2.6107 H   0  0  0  0  0  0  0  0  0  0  0  0
   -2.3077    6.7432    2.5663 H   0  0  0  0  0  0  0  0  0  0  0  0
    0.3799    7.0519    2.3913 H   0  0  0  0  0  0  0  0  0  0  0  0
    0.0677    7.4046    0.6715 H   0  0  0  0  0  0  0  0  0  0  0  0
   -0.3775    4.8405    2.2755 H   0  0  0  0  0  0  0  0  0  0  0  0
    0.5675    5.0892    0.7700 H   0  0  0  0  0  0  0  0  0  0  0  0
   -1.3047    1.4492    2.4583 H   0  0  0  0  0  0  0  0  0  0  0  0
    1.4108    1.4649   -0.0914 H   0  0  0  0  0  0  0  0  0  0  0  0
    0.6288    0.5667    1.2597 H   0  0  0  0  0  0  0  0  0  0  0  0
    0.8630   -0.2467   -0.3065 H   0  0  0  0  0  0  0  0  0  0  0  0
   -1.6127   -0.6393   -0.9938 H   0  0  0  0  0  0  0  0  0  0  0  0
   -1.9256   -0.2931    0.7328 H   0  0  0  0  0  0  0  0  0  0  0  0
   -2.8360    0.6032   -0.5459 H   0  0  0  0  0  0  0  0  0  0  0  0
    0.3215   -0.4006   -2.3756 H   0  0  0  0  0  0  0  0  0  0  0  0
    1.6871   -2.0703   -3.1091 H   0  0  0  0  0  0  0  0  0  0  0  0
    1.4810   -3.4188   -4.2644 H   0  0  0  0  0  0  0  0  0  0  0  0
   -0.8173   -2.4338   -2.4535 H   0  0  0  0  0  0  0  0  0  0  0  0
   -0.8202   -3.8688   -3.5372 H   0  0  0  0  0  0  0  0  0  0  0  0
    0.9789   -4.9224   -2.1744 H   0  0  0  0  0  0  0  0  0  0  0  0
    1.1161   -3.4476   -1.1484 H   0  0  0  0  0  0  0  0  0  0  0  0
   -1.2379   -3.7921   -0.3249 H   0  0  0  0  0  0  0  0  0  0  0  0
   -1.4126   -5.1875   -1.4406 H   0  0  0  0  0  0  0  0  0  0  0  0
    0.3023   -2.9899    1.1423 H   0  0  0  0  0  0  0  0  0  0  0  0
    1.4960   -2.4708    3.1798 H   0  0  0  0  0  0  0  0  0  0  0  0
    2.8250   -6.1212    5.9424 H   0  0  0  0  0  0  0  0  0  0  0  0
    4.0409   -4.8099    7.7218 H   0  0  0  0  0  0  0  0  0  0  0  0
    4.2022   -2.3805    7.0155 H   0  0  0  0  0  0  0  0  0  0  0  0
    3.0949   -2.0814    4.7712 H   0  0  0  0  0  0  0  0  0  0  0  0
    2.3000   -6.6737    3.7877 H   0  0  0  0  0  0  0  0  0  0  0  0
    1.0617   -7.1951    1.7421 H   0  0  0  0  0  0  0  0  0  0  0  0
  1  2  1  0
  2  3  1  0
  3  4  2  0
  4  5  1  0
  5  6  2  0
  6  7  1  0
  7  8  2  0
  8  9  1  0
  9 10  1  0
 10 11  1  0
 11 12  1  0
 12 13  1  0
 13 14  1  0
 14 15  1  0
 15 16  1  0
  9 17  2  0
 17 18  1  0
 17 19  1  0
 19 20  1  0
 19 21  1  0
  6 22  1  0
 22 23  2  0
 23 24  1  0
 24 25  1  0
 25 26  1  0
 26 27  1  0
 27 28  1  0
 28 29  1  0
 29 30  1  0
 30 31  2  0
 31 32  1  0
 32 33  2  0
 33 34  1  0
 34 35  2  0
 35 36  1  0
 36 37  1  0
 37 38  2  0
 33 39  1  0
 39 40  2  0
 23  3  1  0
 40 30  1  0
 19  7  1  0
 38 34  1  0
 16 10  1  0
  1 41  1  0
  1 42  1  0
  1 43  1  0
  4 44  1  0
  5 45  1  0
 10 46  1  0
 11 47  1  0
 11 48  1  0
 12 49  1  0
 12 50  1  0
 13 51  1  0
 13 52  1  0
 14 53  1  0
 14 54  1  0
 15 55  1  0
 15 56  1  0
 16 57  1  0
 16 58  1  0
 18 59  1  0
 20 60  1  0
 20 61  1  0
 20 62  1  0
 21 63  1  0
 21 64  1  0
 21 65  1  0
 22 66  1  0
 25 67  1  0
 25 68  1  0
 26 69  1  0
 26 70  1  0
 27 71  1  0
 27 72  1  0
 28 73  1  0
 28 74  1  0
 31 75  1  0
 32 76  1  0
 35 77  1  0
 36 78  1  0
 37 79  1  0
 38 80  1  0
 39 81  1  0
 40 82  1  0
M  CHG  4   9   1  35   1  37   1  38   1
M  END
>  <UniqueID>  (3) 
2

>  <SMILES>  (3) 
COc1ccc(C2=N[N+](C3CCCCCC3)=C(O)C2(C)C)cc1OCCCCOc1ccc(-c2[nH+][nH][nH+][nH+]2)cc1

>  <Energy>  (3) 
144.16077532484485

>  <Genealogy>  (3) 
COc1ccc(C2=N[NH+](C3CCCCCC3)C(=O)C2(C)C)cc1OCCCCOc1ccc(-c2[nH+][nH][nH+][nH+]2)cc1 (protonated)
COc1ccc(C2=N[N+](C3CCCCCC3)=C(O)C2(C)C)cc1OCCCCOc1ccc(-c2[nH+][nH][nH+][nH+]2)cc1 (tautomer)
COc1ccc(C2=N[N+](C3CCCCCC3)=C(O)C2(C)C)cc1OCCCCOc1ccc(-c2[nH+][nH][nH+][nH+]2)cc1 (3D coordinates assigned)
COc1ccc(C2=N[N+](C3CCCCCC3)=C(O)C2(C)C)cc1OCCCCOc1ccc(-c2[nH+][nH][nH+][nH+]2)cc1 (nonaromatic ring conformer: 144.16077532484485 kcal/mol)

$$$$
ac05
     RDKit          3D

 82 86  0  0  0  0  0  0  0  0999 V2000
   -2.4896   -1.7250   -7.5667 C   0  0  0  0  0  0  0  0  0  0  0  0
   -1.9418   -1.7999   -6.2538 O   0  0  0  0  0  0  0  0  0  0  0  0
   -1.8603   -0.7187   -5.3618 C   0  0  0  0  0  0  0  0  0  0  0  0
   -2.3289    0.5622   -5.6979 C   0  0  0  0  0  0  0  0  0  0  0  0
   -2.2290    1.6159   -4.7884 C   0  0  0  0  0  0  0  0  0  0  0  0
   -1.6678    1.4170   -3.5155 C   0  0  0  0  0  0  0  0  0  0  0  0
   -1.5451    2.5200   -2.5149 C   0  0  0  0  0  0  0  0  0  0  0  0
   -1.0913    2.2933   -1.3226 N   0  0  0  0  0  0  0  0  0  0  0  0
   -1.0412    3.4794   -0.5927 N   0  0  0  0  0  4  0  0  0  0  0  0
   -0.5436    3.5377    0.7888 C   0  0  0  0  0  0  0  0  0  0  0  0
    0.7956    4.3071    0.8286 C   0  0  0  0  0  0  0  0  0  0  0  0
    1.6117    4.0609    2.1041 C   0  0  0  0  0  0  0  0  0  0  0  0
    0.8723    4.4410    3.3964 C   0  0  0  0  0  0  0  0  0  0  0  0
   -0.1941    3.4030    3.7821 C   0  0  0  0  0  0  0  0  0  0  0  0
   -1.5827    3.6573    3.1667 C   0  0  0  0  0  0  0  0  0  0  0  0
   -1.6018    4.1786    1.7181 C   0  0  0  0  0  0  0  0  0  0  0  0
   -1.4467    4.4651   -1.3245 C   0  0  0  0  0  0  0  0  0  0  0  0
   -1.4818    5.7864   -0.8814 O   0  0  0  0  0  0  0  0  0  0  0  0
   -1.8650    3.9985   -2.6891 C   0  0  0  0  0  0  0  0  0  0  0  0
   -0.9925    4.6718   -3.7613 C   0  0  0  0  0  0  0  0  0  0  0  0
   -3.3683    4.2680   -2.8795 C   0  0  0  0  0  0  0  0  0  0  0  0
   -1.2040    0.1282   -3.1836 C   0  0  0  0  0  0  0  0  0  0  0  0
   -1.2868   -0.9362   -4.1024 C   0  0  0  0  0  0  0  0  0  0  0  0
   -0.8138   -2.2272   -3.8062 O   0  0  0  0  0  0  0  0  0  0  0  0
   -0.0741   -2.5994   -2.6427 C   0  0  0  0  0  0  0  0  0  0  0  0
    1.3693   -2.0829   -2.7320 C   0  0  0  0  0  0  0  0  0  0  0  0
    2.1668   -2.3469   -1.4464 C   0  0  0  0  0  0  0  0  0  0  0  0
    2.5677   -3.8200   -1.2958 C   0  0  0  0  0  0  0  0  0  0  0  0
    3.3535   -4.0043   -0.1181 O   0  0  0  0  0  0  0  0  0  0  0  0
    2.8579   -4.0256    1.1963 C   0  0  0  0  0  0  0  0  0  0  0  0
    1.4833   -3.9763    1.4948 C   0  0  0  0  0  0  0  0  0  0  0  0
    1.0468   -4.0065    2.8228 C   0  0  0  0  0  0  0  0  0  0  0  0
    1.9715   -4.0897    3.8787 C   0  0  0  0  0  0  0  0  0  0  0  0
    1.5079   -4.1297    5.2877 C   0  0  0  0  0  0  0  0  0  0  0  0
    2.2513   -4.5295    6.3427 N   0  0  0  0  0  4  0  0  0  0  0  0
    1.4652   -4.4160    7.3997 N   0  0  0  0  0  0  0  0  0  0  0  0
    0.2819   -3.9640    7.0238 N   0  0  0  0  0  4  0  0  0  0  0  0
    0.2756   -3.7770    5.7145 N   0  0  0  0  0  4  0  0  0  0  0  0
    3.3434   -4.1387    3.5741 C   0  0  0  0  0  0  0  0  0  0  0  0
    3.7773   -4.1081    2.2462 C   0  0  0  0  0  0  0  0  0  0  0  0
   -1.9169   -0.9965   -8.1789 H   0  0  0  0  0  0  0  0  0  0  0  0
   -2.4197   -2.7231   -8.0459 H   0  0  0  0  0  0  0  0  0  0  0  0
   -3.5595   -1.4290   -7.5182 H   0  0  0  0  0  0  0  0  0  0  0  0
   -2.7717    0.7559   -6.6655 H   0  0  0  0  0  0  0  0  0  0  0  0
   -2.5989    2.5747   -5.1022 H   0  0  0  0  0  0  0  0  0  0  0  0
   -0.3626    2.4901    1.1177 H   0  0  0  0  0  0  0  0  0  0  0  0
    0.6255    5.3989    0.7058 H   0  0  0  0  0  0  0  0  0  0  0  0
    1.4187    3.9817   -0.0336 H   0  0  0  0  0  0  0  0  0  0  0  0
    1.9368    2.9980    2.1430 H   0  0  0  0  0  0  0  0  0  0  0  0
    2.5371    4.6747    2.0400 H   0  0  0  0  0  0  0  0  0  0  0  0
    1.6257    4.4740    4.2135 H   0  0  0  0  0  0  0  0  0  0  0  0
    0.4346    5.4604    3.3201 H   0  0  0  0  0  0  0  0  0  0  0  0
   -0.3094    3.4112    4.8880 H   0  0  0  0  0  0  0  0  0  0  0  0
    0.1483    2.3784    3.5196 H   0  0  0  0  0  0  0  0  0  0  0  0
   -2.1608    2.7080    3.2145 H   0  0  0  0  0  0  0  0  0  0  0  0
   -2.1249    4.3929    3.8017 H   0  0  0  0  0  0  0  0  0  0  0  0
   -2.6184    3.9784    1.3116 H   0  0  0  0  0  0  0  0  0  0  0  0
   -1.4868    5.2845    1.7297 H   0  0  0  0  0  0  0  0  0  0  0  0
   -1.8004    6.5334   -1.4857 H   0  0  0  0  0  0  0  0  0  0  0  0
   -1.2151    4.2839   -4.7730 H   0  0  0  0  0  0  0  0  0  0  0  0
   -1.1758    5.7665   -3.7737 H   0  0  0  0  0  0  0  0  0  0  0  0
    0.0856    4.4980   -3.5529 H   0  0  0  0  0  0  0  0  0  0  0  0
   -3.5840    5.3499   -2.7544 H   0  0  0  0  0  0  0  0  0  0  0  0
   -3.7188    3.9821   -3.8882 H   0  0  0  0  0  0  0  0  0  0  0  0
   -3.9646    3.7066   -2.1280 H   0  0  0  0  0  0  0  0  0  0  0  0
   -0.7707   -0.0411   -2.2086 H   0  0  0  0  0  0  0  0  0  0  0  0
   -0.5830   -2.2361   -1.7245 H   0  0  0  0  0  0  0  0  0  0  0  0
   -0.0607   -3.7073   -2.5925 H   0  0  0  0  0  0  0  0  0  0  0  0
    1.3567   -0.9867   -2.9095 H   0  0  0  0  0  0  0  0  0  0  0  0
    1.8787   -2.5502   -3.6031 H   0  0  0  0  0  0  0  0  0  0  0  0
    3.0964   -1.7382   -1.4797 H   0  0  0  0  0  0  0  0  0  0  0  0
    1.5830   -2.0072   -0.5642 H   0  0  0  0  0  0  0  0  0  0  0  0
    3.1866   -4.1132   -2.1705 H   0  0  0  0  0  0  0  0  0  0  0  0
    1.6851   -4.4913   -1.2773 H   0  0  0  0  0  0  0  0  0  0  0  0
    0.7402   -3.9227    0.7124 H   0  0  0  0  0  0  0  0  0  0  0  0
   -0.0174   -3.9833    3.0146 H   0  0  0  0  0  0  0  0  0  0  0  0
    3.2335   -4.8815    6.3602 H   0  0  0  0  0  0  0  0  0  0  0  0
    1.7366   -4.6519    8.3800 H   0  0  0  0  0  0  0  0  0  0  0  0
   -0.5230   -3.7797    7.6630 H   0  0  0  0  0  0  0  0  0  0  0  0
   -0.5319   -3.4118    5.1635 H   0  0  0  0  0  0  0  0  0  0  0  0
    4.0881   -4.1861    4.3567 H   0  0  0  0  0  0  0  0  0  0  0  0
    4.8379   -4.1448    2.0315 H   0  0  0  0  0  0  0  0  0  0  0  0
  1  2  1  0
  2  3  1  0
  3  4  2  0
  4  5  1  0
  5  6  2  0
  6  7  1  0
  7  8  2  0
  8  9  1  0
  9 10  1  0
 10 11  1  0
 11 12  1  0
 12 13  1  0
 13 14  1  0
 14 15  1  0
 15 16  1  0
  9 17  2  0
 17 18  1  0
 17 19  1  0
 19 20  1  0
 19 21  1  0
  6 22  1  0
 22 23  2  0
 23 24  1  0
 24 25  1  0
 25 26  1  0
 26 27  1  0
 27 28  1  0
 28 29  1  0
 29 30  1  0
 30 31  2  0
 31 32  1  0
 32 33  2  0
 33 34  1  0
 34 35  2  0
 35 36  1  0
 36 37  1  0
 37 38  2  0
 33 39  1  0
 39 40  2  0
 23  3  1  0
 40 30  1  0
 19  7  1  0
 38 34  1  0
 16 10  1  0
  1 41  1  0
  1 42  1  0
  1 43  1  0
  4 44  1  0
  5 45  1  0
 10 46  1  0
 11 47  1  0
 11 48  1  0
 12 49  1  0
 12 50  1  0
 13 51  1  0
 13 52  1  0
 14 53  1  0
 14 54  1  0
 15 55  1  0
 15 56  1  0
 16 57  1  0
 16 58  1  0
 18 59  1  0
 20 60  1  0
 20 61  1  0
 20 62  1  0
 21 63  1  0
 21 64  1  0
 21 65  1  0
 22 66  1  0
 25 67  1  0
 25 68  1  0
 26 69  1  0
 26 70  1  0
 27 71  1  0
 27 72  1  0
 28 73  1  0
 28 74  1  0
 31 75  1  0
 32 76  1  0
 35 77  1  0
 36 78  1  0
 37 79  1  0
 38 80  1  0
 39 81  1  0
 40 82  1  0
M  CHG  4   9   1  35   1  37   1  38   1
M  END
>  <UniqueID>  (4) 
3

>  <SMILES>  (4) 
COc1ccc(C2=N[N+](C3CCCCCC3)=C(O)C2(C)C)cc1OCCCCOc1ccc(-c2[nH+][nH][nH+][nH+]2)cc1

>  <Energy>  (4) 
144.3446876934275

>  <Genealogy>  (4) 
COc1ccc(C2=N[NH+](C3CCCCCC3)C(=O)C2(C)C)cc1OCCCCOc1ccc(-c2[nH+][nH][nH+][nH+]2)cc1 (protonated)
COc1ccc(C2=N[N+](C3CCCCCC3)=C(O)C2(C)C)cc1OCCCCOc1ccc(-c2[nH+][nH][nH+][nH+]2)cc1 (tautomer)
COc1ccc(C2=N[N+](C3CCCCCC3)=C(O)C2(C)C)cc1OCCCCOc1ccc(-c2[nH+][nH][nH+][nH+]2)cc1 (3D coordinates assigned)
COc1ccc(C2=N[N+](C3CCCCCC3)=C(O)C2(C)C)cc1OCCCCOc1ccc(-c2[nH+][nH][nH+][nH+]2)cc1 (nonaromatic ring conformer: 144.3446876934275 kcal/mol)

$$$$
bc02
     RDKit          3D

 87 92  0  0  0  0  0  0  0  0999 V2000
   -0.0631   -4.8523   -6.3380 C   0  0  0  0  0  0  0  0  0  0  0  0
   -0.3313   -4.9521   -4.9434 O   0  0  0  0  0  0  0  0  0  0  0  0
   -0.0013   -3.9662   -3.9997 C   0  0  0  0  0  0  0  0  0  0  0  0
    0.6052   -2.7537   -4.3693 C   0  0  0  0  0  0  0  0  0  0  0  0
    0.9189   -1.7983   -3.4033 C   0  0  0  0  0  0  0  0  0  0  0  0
    0.6450   -2.0270   -2.0427 C   0  0  0  0  0  0  0  0  0  0  0  0
    0.9923   -0.9835   -1.0288 C   0  0  0  0  0  0  0  0  0  0  0  0
    1.7828   -0.0128   -1.3790 N   0  0  0  0  0  0  0  0  0  0  0  0
    2.1857    1.0304   -0.5201 N   0  0  0  0  0  4  0  0  0  0  0  0
    3.2698    1.9066   -1.0123 C   0  0  0  0  0  0  0  0  0  0  0  0
    2.7614    3.3581   -1.2247 C   0  0  0  0  0  0  0  0  0  0  0  0
    3.4908    4.0773   -2.3706 C   0  0  0  0  0  0  0  0  0  0  0  0
    4.8852    4.5835   -1.9873 C   0  0  0  0  0  0  0  0  0  0  0  0
    5.8419    3.4682   -1.5457 C   0  0  0  0  0  0  0  0  0  0  0  0
    5.5154    2.9461   -0.1370 C   0  0  0  0  0  0  0  0  0  0  0  0
    4.5336    1.7634   -0.1210 C   0  0  0  0  0  0  0  0  0  0  0  0
    1.5710    1.2372    0.6233 C   0  0  0  0  0  0  0  0  0  0  0  0
    1.9239    2.3392    1.4089 O   0  0  0  0  0  0  0  0  0  0  0  0
    0.4205    0.3327    1.0485 C   0  0  2  0  0  0  0  0  0  0  0  0
    0.3008    0.1772    2.5775 C   0  0  0  0  0  0  0  0  0  0  0  0
    1.5472   -0.4589    3.1150 C   0  0  0  0  0  0  0  0  0  0  0  0
    2.1140   -1.4752    2.4523 C   0  0  0  0  0  0  0  0  0  0  0  0
    1.4837   -2.0583    1.2082 C   0  0  0  0  0  0  0  0  0  0  0  0
    0.5496   -1.0816    0.4157 C   0  0  2  0  0  0  0  0  0  0  0  0
    0.0499   -3.2502   -1.6772 C   0  0  0  0  0  0  0  0  0  0  0  0
   -0.2936   -4.2107   -2.6510 C   0  0  0  0  0  0  0  0  0  0  0  0
   -0.9236   -5.4242   -2.3243 O   0  0  0  0  0  0  0  0  0  0  0  0
   -1.4332   -5.7802   -1.0389 C   0  0  0  0  0  0  0  0  0  0  0  0
   -2.6954   -4.9746   -0.7173 C   0  0  0  0  0  0  0  0  0  0  0  0
   -3.2418   -5.3294    0.6714 C   0  0  0  0  0  0  0  0  0  0  0  0
   -4.3187   -4.3396    1.1146 C   0  0  0  0  0  0  0  0  0  0  0  0
   -3.7300   -3.0550    1.3105 O   0  0  0  0  0  0  0  0  0  0  0  0
   -4.4229   -1.9141    1.7359 C   0  0  0  0  0  0  0  0  0  0  0  0
   -3.7045   -0.7271    1.8921 C   0  0  0  0  0  0  0  0  0  0  0  0
   -4.3342    0.4330    2.3458 C   0  0  0  0  0  0  0  0  0  0  0  0
   -5.7121    0.4327    2.6369 C   0  0  0  0  0  0  0  0  0  0  0  0
   -6.3796    1.6642    3.1329 C   0  0  0  0  0  0  0  0  0  0  0  0
   -7.6160    1.7192    3.6748 N   0  0  0  0  0  4  0  0  0  0  0  0
   -7.8101    2.9858    3.9986 N   0  0  0  0  0  0  0  0  0  0  0  0
   -6.7444    3.6952    3.6707 N   0  0  0  0  0  4  0  0  0  0  0  0
   -5.8356    2.9023    3.1328 N   0  0  0  0  0  4  0  0  0  0  0  0
   -6.4413   -0.7586    2.4537 C   0  0  0  0  0  0  0  0  0  0  0  0
   -5.8021   -1.9227    2.0141 C   0  0  0  0  0  0  0  0  0  0  0  0
   -0.5817   -3.9659   -6.7629 H   0  0  0  0  0  0  0  0  0  0  0  0
   -0.4382   -5.7648   -6.8485 H   0  0  0  0  0  0  0  0  0  0  0  0
    1.0330   -4.7761   -6.5119 H   0  0  0  0  0  0  0  0  0  0  0  0
    0.8387   -2.5377   -5.4038 H   0  0  0  0  0  0  0  0  0  0  0  0
    1.3757   -0.8727   -3.7287 H   0  0  0  0  0  0  0  0  0  0  0  0
    3.5677    1.5226   -2.0135 H   0  0  0  0  0  0  0  0  0  0  0  0
    2.8316    3.9579   -0.2920 H   0  0  0  0  0  0  0  0  0  0  0  0
    1.6832    3.3187   -1.5047 H   0  0  0  0  0  0  0  0  0  0  0  0
    2.8821    4.9589   -2.6714 H   0  0  0  0  0  0  0  0  0  0  0  0
    3.5587    3.4215   -3.2668 H   0  0  0  0  0  0  0  0  0  0  0  0
    4.8002    5.3557   -1.1938 H   0  0  0  0  0  0  0  0  0  0  0  0
    5.3207    5.0888   -2.8774 H   0  0  0  0  0  0  0  0  0  0  0  0
    6.8659    3.8996   -1.5235 H   0  0  0  0  0  0  0  0  0  0  0  0
    5.8534    2.6445   -2.2905 H   0  0  0  0  0  0  0  0  0  0  0  0
    6.4608    2.6038    0.3407 H   0  0  0  0  0  0  0  0  0  0  0  0
    5.1271    3.7651    0.5066 H   0  0  0  0  0  0  0  0  0  0  0  0
    4.2503    1.5849    0.9348 H   0  0  0  0  0  0  0  0  0  0  0  0
    5.0768    0.8443   -0.4387 H   0  0  0  0  0  0  0  0  0  0  0  0
    1.4177    2.6248    2.2340 H   0  0  0  0  0  0  0  0  0  0  0  0
   -0.5165    0.8031    0.6763 H   0  0  0  0  0  0  0  0  0  0  0  0
    0.0959    1.1388    3.0872 H   0  0  0  0  0  0  0  0  0  0  0  0
   -0.5582   -0.4883    2.8135 H   0  0  0  0  0  0  0  0  0  0  0  0
    2.0290   -0.0489    3.9962 H   0  0  0  0  0  0  0  0  0  0  0  0
    3.0266   -1.9206    2.8364 H   0  0  0  0  0  0  0  0  0  0  0  0
    2.2966   -2.4532    0.5594 H   0  0  0  0  0  0  0  0  0  0  0  0
    0.8866   -2.9390    1.5302 H   0  0  0  0  0  0  0  0  0  0  0  0
   -0.4789   -1.5071    0.4322 H   0  0  0  0  0  0  0  0  0  0  0  0
   -0.1371   -3.4629   -0.6389 H   0  0  0  0  0  0  0  0  0  0  0  0
   -1.6914   -6.8603   -1.0529 H   0  0  0  0  0  0  0  0  0  0  0  0
   -0.6524   -5.6409   -0.2625 H   0  0  0  0  0  0  0  0  0  0  0  0
   -2.4654   -3.8896   -0.7611 H   0  0  0  0  0  0  0  0  0  0  0  0
   -3.4709   -5.1895   -1.4850 H   0  0  0  0  0  0  0  0  0  0  0  0
   -3.6734   -6.3548    0.6430 H   0  0  0  0  0  0  0  0  0  0  0  0
   -2.4204   -5.3167    1.4221 H   0  0  0  0  0  0  0  0  0  0  0  0
   -5.1196   -4.2824    0.3458 H   0  0  0  0  0  0  0  0  0  0  0  0
   -4.7589   -4.6948    2.0706 H   0  0  0  0  0  0  0  0  0  0  0  0
   -2.6466   -0.7068    1.6712 H   0  0  0  0  0  0  0  0  0  0  0  0
   -3.7317    1.3207    2.4787 H   0  0  0  0  0  0  0  0  0  0  0  0
   -8.2956    0.9451    3.8524 H   0  0  0  0  0  0  0  0  0  0  0  0
   -8.6688    3.3654    4.4536 H   0  0  0  0  0  0  0  0  0  0  0  0
   -6.6349    4.7236    3.8175 H   0  0  0  0  0  0  0  0  0  0  0  0
   -4.9036    3.2155    2.7814 H   0  0  0  0  0  0  0  0  0  0  0  0
   -7.5054   -0.8007    2.6483 H   0  0  0  0  0  0  0  0  0  0  0  0
   -6.3880   -2.8235    1.8929 H   0  0  0  0  0  0  0  0  0  0  0  0
  1  2  1  0
  2  3  1  0
  3  4  2  0
  4  5  1  0
  5  6  2  0
  6  7  1  0
  7  8  2  0
  8  9  1  0
  9 10  1  0
 10 11  1  0
 11 12  1  0
 12 13  1  0
 13 14  1  0
 14 15  1  0
 15 16  1  0
  9 17  2  0
 17 18  1  0
 17 19  1  0
 19 20  1  0
 20 21  1  0
 21 22  2  0
 22 23  1  0
 23 24  1  0
  6 25  1  0
 25 26  2  0
 26 27  1  0
 27 28  1  0
 28 29  1  0
 29 30  1  0
 30 31  1  0
 31 32  1  0
 32 33  1  0
 33 34  2  0
 34 35  1  0
 35 36  2  0
 36 37  1  0
 37 38  2  0
 38 39  1  0
 39 40  1  0
 40 41  2  0
 36 42  1  0
 42 43  2  0
 26  3  1  0
 43 33  1  0
 24  7  1  0
 41 37  1  0
 16 10  1  0
 24 19  1  0
  1 44  1  0
  1 45  1  0
  1 46  1  0
  4 47  1  0
  5 48  1  0
 10 49  1  0
 11 50  1  0
 11 51  1  0
 12 52  1  0
 12 53  1  0
 13 54  1  0
 13 55  1  0
 14 56  1  0
 14 57  1  0
 15 58  1  0
 15 59  1  0
 16 60  1  0
 16 61  1  0
 18 62  1  0
 19 63  1  6
 20 64  1  0
 20 65  1  0
 21 66  1  0
 22 67  1  0
 23 68  1  0
 23 69  1  0
 24 70  1  6
 25 71  1  0
 28 72  1  0
 28 73  1  0
 29 74  1  0
 29 75  1  0
 30 76  1  0
 30 77  1  0
 31 78  1  0
 31 79  1  0
 34 80  1  0
 35 81  1  0
 38 82  1  0
 39 83  1  0
 40 84  1  0
 41 85  1  0
 42 86  1  0
 43 87  1  0
M  CHG  4   9   1  38   1  40   1  41   1
M  END
>  <UniqueID>  (5) 
4

>  <SMILES>  (5) 
COc1ccc(C2=N[N+](C3CCCCCC3)=C(O)[C@@H]3CC=CC[C@H]23)cc1OCCCCOc1ccc(-c2[nH+][nH][nH+][nH+]2)cc1

>  <Energy>  (5) 
142.6839991777339

>  <Genealogy>  (5) 
COc1ccc(C2=N[NH+](C3CCCCCC3)C(=O)[C@@H]3CC=CC[C@H]23)cc1OCCCCOc1ccc(-c2[nH+][nH][nH+][nH+]2)cc1 (protonated)
COc1ccc(C2=N[N+](C3CCCCCC3)=C(O)[C@@H]3CC=CC[C@H]23)cc1OCCCCOc1ccc(-c2[nH+][nH][nH+][nH+]2)cc1 (tautomer)
COc1ccc(C2=N[N+](C3CCCCCC3)=C(O)[C@@H]3CC=CC[C@H]23)cc1OCCCCOc1ccc(-c2[nH+][nH][nH+][nH+]2)cc1 (3D coordinates assigned)
COc1ccc(C2=N[N+](C3CCCCCC3)=C(O)[C@@H]3CC=CC[C@H]23)cc1OCCCCOc1ccc(-c2[nH+][nH][nH+][nH+]2)cc1 (nonaromatic ring conformer: 142.6839991777339 kcal/mol)

$$$$
bc02
     RDKit          3D

 87 92  0  0  0  0  0  0  0  0999 V2000
   -1.8071   -5.8680   -1.0625 C   0  0  0  0  0  0  0  0  0  0  0  0
   -1.5080   -4.5266   -0.6901 O   0  0  0  0  0  0  0  0  0  0  0  0
   -0.3080   -3.8647   -0.9978 C   0  0  0  0  0  0  0  0  0  0  0  0
    0.7197   -4.4840   -1.7297 C   0  0  0  0  0  0  0  0  0  0  0  0
    1.8974   -3.7939   -2.0240 C   0  0  0  0  0  0  0  0  0  0  0  0
    2.0859   -2.4710   -1.5828 C   0  0  0  0  0  0  0  0  0  0  0  0
    3.3287   -1.7020   -1.9019 C   0  0  0  0  0  0  0  0  0  0  0  0
    3.6149   -0.6684   -1.1723 N   0  0  0  0  0  0  0  0  0  0  0  0
    4.7158    0.1862   -1.3707 N   0  0  0  0  0  4  0  0  0  0  0  0
    4.7770    1.3760   -0.4925 C   0  0  0  0  0  0  0  0  0  0  0  0
    5.9454    1.2525    0.5132 C   0  0  0  0  0  0  0  0  0  0  0  0
    5.8030    2.1699    1.7345 C   0  0  0  0  0  0  0  0  0  0  0  0
    5.7191    3.6620    1.3764 C   0  0  0  0  0  0  0  0  0  0  0  0
    4.3298    4.0577    0.8464 C   0  0  0  0  0  0  0  0  0  0  0  0
    4.1440    3.8865   -0.6743 C   0  0  0  0  0  0  0  0  0  0  0  0
    4.8538    2.6822   -1.3205 C   0  0  0  0  0  0  0  0  0  0  0  0
    5.6540   -0.1011   -2.2432 C   0  0  0  0  0  0  0  0  0  0  0  0
    6.7880    0.7118   -2.3342 O   0  0  0  0  0  0  0  0  0  0  0  0
    5.5733   -1.3405   -3.1184 C   0  0  2  0  0  0  0  0  0  0  0  0
    6.1038   -1.0191   -4.5539 C   0  0  0  0  0  0  0  0  0  0  0  0
    5.4718   -1.8561   -5.6341 C   0  0  0  0  0  0  0  0  0  0  0  0
    4.1604   -2.1070   -5.5971 C   0  0  0  0  0  0  0  0  0  0  0  0
    3.3661   -1.6663   -4.4035 C   0  0  0  0  0  0  0  0  0  0  0  0
    4.1590   -2.0128   -3.1270 C   0  0  2  0  0  0  0  0  0  0  0  0
    1.0584   -1.8620   -0.8353 C   0  0  0  0  0  0  0  0  0  0  0  0
   -0.1416   -2.5453   -0.5556 C   0  0  0  0  0  0  0  0  0  0  0  0
   -1.1961   -1.9440    0.1505 O   0  0  0  0  0  0  0  0  0  0  0  0
   -1.1654   -0.6217    0.6841 C   0  0  0  0  0  0  0  0  0  0  0  0
   -2.5339   -0.2554    1.2587 C   0  0  0  0  0  0  0  0  0  0  0  0
   -3.5942   -0.1535    0.1520 C   0  0  0  0  0  0  0  0  0  0  0  0
   -4.9274    0.3624    0.6925 C   0  0  0  0  0  0  0  0  0  0  0  0
   -5.5164   -0.6037    1.5609 O   0  0  0  0  0  0  0  0  0  0  0  0
   -6.7596   -0.4407    2.1912 C   0  0  0  0  0  0  0  0  0  0  0  0
   -7.5125    0.7426    2.0780 C   0  0  0  0  0  0  0  0  0  0  0  0
   -8.7492    0.8583    2.7189 C   0  0  0  0  0  0  0  0  0  0  0  0
   -9.2653   -0.2066    3.4809 C   0  0  0  0  0  0  0  0  0  0  0  0
  -10.5878   -0.0869    4.1496 C   0  0  0  0  0  0  0  0  0  0  0  0
  -11.4921    0.8922    3.9217 N   0  0  0  0  0  4  0  0  0  0  0  0
  -12.5227    0.6192    4.7043 N   0  0  0  0  0  0  0  0  0  0  0  0
  -12.2766   -0.4813    5.3926 N   0  0  0  0  0  4  0  0  0  0  0  0
  -11.0807   -0.9456    5.0707 N   0  0  0  0  0  4  0  0  0  0  0  0
   -8.5059   -1.3874    3.5911 C   0  0  0  0  0  0  0  0  0  0  0  0
   -7.2651   -1.4974    2.9554 C   0  0  0  0  0  0  0  0  0  0  0  0
   -1.8050   -5.9651   -2.1682 H   0  0  0  0  0  0  0  0  0  0  0  0
   -2.8150   -6.1322   -0.6840 H   0  0  0  0  0  0  0  0  0  0  0  0
   -1.0672   -6.5645   -0.6150 H   0  0  0  0  0  0  0  0  0  0  0  0
    0.6168   -5.5022   -2.0818 H   0  0  0  0  0  0  0  0  0  0  0  0
    2.6539   -4.3173   -2.5876 H   0  0  0  0  0  0  0  0  0  0  0  0
    3.8306    1.4016    0.0952 H   0  0  0  0  0  0  0  0  0  0  0  0
    5.9853    0.2051    0.8855 H   0  0  0  0  0  0  0  0  0  0  0  0
    6.9203    1.4595    0.0218 H   0  0  0  0  0  0  0  0  0  0  0  0
    4.9189    1.8645    2.3355 H   0  0  0  0  0  0  0  0  0  0  0  0
    6.6948    2.0134    2.3789 H   0  0  0  0  0  0  0  0  0  0  0  0
    6.5202    3.9484    0.6599 H   0  0  0  0  0  0  0  0  0  0  0  0
    5.9012    4.2375    2.3100 H   0  0  0  0  0  0  0  0  0  0  0  0
    4.1520    5.1279    1.0877 H   0  0  0  0  0  0  0  0  0  0  0  0
    3.5380    3.4923    1.3852 H   0  0  0  0  0  0  0  0  0  0  0  0
    3.0538    3.8121   -0.8832 H   0  0  0  0  0  0  0  0  0  0  0  0
    4.5012    4.8074   -1.1834 H   0  0  0  0  0  0  0  0  0  0  0  0
    5.9114    2.9567   -1.5202 H   0  0  0  0  0  0  0  0  0  0  0  0
    4.3823    2.5182   -2.3145 H   0  0  0  0  0  0  0  0  0  0  0  0
    7.5782    0.4812   -2.9220 H   0  0  0  0  0  0  0  0  0  0  0  0
    6.2772   -2.0740   -2.6655 H   0  0  0  0  0  0  0  0  0  0  0  0
    7.2047   -1.1569   -4.5931 H   0  0  0  0  0  0  0  0  0  0  0  0
    5.8887    0.0415   -4.8092 H   0  0  0  0  0  0  0  0  0  0  0  0
    6.0785   -2.2433   -6.4472 H   0  0  0  0  0  0  0  0  0  0  0  0
    3.6970   -2.7128   -6.3696 H   0  0  0  0  0  0  0  0  0  0  0  0
    3.1893   -0.5698   -4.4589 H   0  0  0  0  0  0  0  0  0  0  0  0
    2.3823   -2.1821   -4.4146 H   0  0  0  0  0  0  0  0  0  0  0  0
    4.3523   -3.1068   -3.1428 H   0  0  0  0  0  0  0  0  0  0  0  0
    1.1857   -0.8449   -0.4921 H   0  0  0  0  0  0  0  0  0  0  0  0
   -0.4038   -0.5692    1.4915 H   0  0  0  0  0  0  0  0  0  0  0  0
   -0.8960    0.1073   -0.1104 H   0  0  0  0  0  0  0  0  0  0  0  0
   -2.8381   -1.0214    2.0057 H   0  0  0  0  0  0  0  0  0  0  0  0
   -2.4447    0.7255    1.7770 H   0  0  0  0  0  0  0  0  0  0  0  0
   -3.2417    0.5506   -0.6333 H   0  0  0  0  0  0  0  0  0  0  0  0
   -3.7476   -1.1494   -0.3194 H   0  0  0  0  0  0  0  0  0  0  0  0
   -4.7688    1.3189    1.2372 H   0  0  0  0  0  0  0  0  0  0  0  0
   -5.6090    0.5496   -0.1650 H   0  0  0  0  0  0  0  0  0  0  0  0
   -7.1503    1.5815    1.4998 H   0  0  0  0  0  0  0  0  0  0  0  0
   -9.2920    1.7882    2.6169 H   0  0  0  0  0  0  0  0  0  0  0  0
  -11.4403    1.7004    3.2620 H   0  0  0  0  0  0  0  0  0  0  0  0
  -13.3996    1.1827    4.7620 H   0  0  0  0  0  0  0  0  0  0  0  0
  -12.9269   -0.9167    6.0846 H   0  0  0  0  0  0  0  0  0  0  0  0
  -10.6409   -1.7997    5.4786 H   0  0  0  0  0  0  0  0  0  0  0  0
   -8.8703   -2.2357    4.1541 H   0  0  0  0  0  0  0  0  0  0  0  0
   -6.6963   -2.4145    3.0483 H   0  0  0  0  0  0  0  0  0  0  0  0
  1  2  1  0
  2  3  1  0
  3  4  2  0
  4  5  1  0
  5  6  2  0
  6  7  1  0
  7  8  2  0
  8  9  1  0
  9 10  1  0
 10 11  1  0
 11 12  1  0
 12 13  1  0
 13 14  1  0
 14 15  1  0
 15 16  1  0
  9 17  2  0
 17 18  1  0
 17 19  1  0
 19 20  1  0
 20 21  1  0
 21 22  2  0
 22 23  1  0
 23 24  1  0
  6 25  1  0
 25 26  2  0
 26 27  1  0
 27 28  1  0
 28 29  1  0
 29 30  1  0
 30 31  1  0
 31 32  1  0
 32 33  1  0
 33 34  2  0
 34 35  1  0
 35 36  2  0
 36 37  1  0
 37 38  2  0
 38 39  1  0
 39 40  1  0
 40 41  2  0
 36 42  1  0
 42 43  2  0
 26  3  1  0
 43 33  1  0
 24  7  1  0
 41 37  1  0
 16 10  1  0
 24 19  1  0
  1 44  1  0
  1 45  1  0
  1 46  1  0
  4 47  1  0
  5 48  1  0
 10 49  1  0
 11 50  1  0
 11 51  1  0
 12 52  1  0
 12 53  1  0
 13 54  1  0
 13 55  1  0
 14 56  1  0
 14 57  1  0
 15 58  1  0
 15 59  1  0
 16 60  1  0
 16 61  1  0
 18 62  1  0
 19 63  1  1
 20 64  1  0
 20 65  1  0
 21 66  1  0
 22 67  1  0
 23 68  1  0
 23 69  1  0
 24 70  1  6
 25 71  1  0
 28 72  1  0
 28 73  1  0
 29 74  1  0
 29 75  1  0
 30 76  1  0
 30 77  1  0
 31 78  1  0
 31 79  1  0
 34 80  1  0
 35 81  1  0
 38 82  1  0
 39 83  1  0
 40 84  1  0
 41 85  1  0
 42 86  1  0
 43 87  1  0
M  CHG  4   9   1  38   1  40   1  41   1
M  END
>  <UniqueID>  (6) 
5

>  <SMILES>  (6) 
COc1ccc(C2=N[N+](C3CCCCCC3)=C(O)[C@@H]3CC=CC[C@H]23)cc1OCCCCOc1ccc(-c2[nH+][nH][nH+][nH+]2)cc1

>  <Energy>  (6) 
143.92096941878503

>  <Genealogy>  (6) 
COc1ccc(C2=N[NH+](C3CCCCCC3)C(=O)[C@@H]3CC=CC[C@H]23)cc1OCCCCOc1ccc(-c2[nH+][nH][nH+][nH+]2)cc1 (protonated)
COc1ccc(C2=N[N+](C3CCCCCC3)=C(O)[C@@H]3CC=CC[C@H]23)cc1OCCCCOc1ccc(-c2[nH+][nH][nH+][nH+]2)cc1 (tautomer)
COc1ccc(C2=N[N+](C3CCCCCC3)=C(O)[C@@H]3CC=CC[C@H]23)cc1OCCCCOc1ccc(-c2[nH+][nH][nH+][nH+]2)cc1 (3D coordinates assigned)
COc1ccc(C2=N[N+](C3CCCCCC3)=C(O)[C@@H]3CC=CC[C@H]23)cc1OCCCCOc1ccc(-c2[nH+][nH][nH+][nH+]2)cc1 (nonaromatic ring conformer: 143.92096941878503 kcal/mol)

$$$$
bc02
     RDKit          3D

 87 92  0  0  0  0  0  0  0  0999 V2000
   -2.2948   -4.5723   -4.7565 C   0  0  0  0  0  0  0  0  0  0  0  0
   -2.1637   -3.2840   -4.1602 O   0  0  0  0  0  0  0  0  0  0  0  0
   -1.0592   -2.8716   -3.3971 C   0  0  0  0  0  0  0  0  0  0  0  0
    0.0603   -3.7025   -3.1916 C   0  0  0  0  0  0  0  0  0  0  0  0
    1.1312   -3.2685   -2.4089 C   0  0  0  0  0  0  0  0  0  0  0  0
    1.0947   -2.0046   -1.8040 C   0  0  0  0  0  0  0  0  0  0  0  0
    2.1950   -1.5341   -0.9420 C   0  0  0  0  0  0  0  0  0  0  0  0
    2.7757   -0.4133   -1.2592 N   0  0  0  0  0  0  0  0  0  0  0  0
    3.6946    0.2557   -0.4158 N   0  0  0  0  0  4  0  0  0  0  0  0
    3.9666    1.6744   -0.7305 C   0  0  0  0  0  0  0  0  0  0  0  0
    5.4500    1.8947   -1.1034 C   0  0  0  0  0  0  0  0  0  0  0  0
    5.7720    3.3411   -1.5192 C   0  0  0  0  0  0  0  0  0  0  0  0
    5.8386    4.2914   -0.3102 C   0  0  0  0  0  0  0  0  0  0  0  0
    4.4940    4.9375    0.0763 C   0  0  0  0  0  0  0  0  0  0  0  0
    3.2450    4.0479   -0.0678 C   0  0  0  0  0  0  0  0  0  0  0  0
    3.4478    2.5954    0.3996 C   0  0  0  0  0  0  0  0  0  0  0  0
    4.2052   -0.3610    0.6308 C   0  0  0  0  0  0  0  0  0  0  0  0
    5.0906    0.2875    1.4943 O   0  0  0  0  0  0  0  0  0  0  0  0
    3.8555   -1.8057    0.8953 C   0  0  2  0  0  0  0  0  0  0  0  0
    4.8408   -2.7239    0.1448 C   0  0  0  0  0  0  0  0  0  0  0  0
    4.3703   -4.1496    0.0487 C   0  0  0  0  0  0  0  0  0  0  0  0
    3.0845   -4.5004    0.1889 C   0  0  0  0  0  0  0  0  0  0  0  0
    2.0351   -3.5469    0.6944 C   0  0  0  0  0  0  0  0  0  0  0  0
    2.4016   -2.0658    0.4647 C   0  0  2  0  0  0  0  0  0  0  0  0
   -0.0007   -1.1602   -2.0365 C   0  0  0  0  0  0  0  0  0  0  0  0
   -1.0897   -1.5933   -2.8168 C   0  0  0  0  0  0  0  0  0  0  0  0
   -2.2263   -0.7914   -3.0241 O   0  0  0  0  0  0  0  0  0  0  0  0
   -2.4000    0.5257   -2.5041 C   0  0  0  0  0  0  0  0  0  0  0  0
   -3.8580    0.9596   -2.6534 C   0  0  0  0  0  0  0  0  0  0  0  0
   -4.7941    0.0351   -1.8615 C   0  0  0  0  0  0  0  0  0  0  0  0
   -6.2020    0.6319   -1.7494 C   0  0  0  0  0  0  0  0  0  0  0  0
   -7.0338   -0.1907   -0.9289 O   0  0  0  0  0  0  0  0  0  0  0  0
   -6.9339   -0.3115    0.4693 C   0  0  0  0  0  0  0  0  0  0  0  0
   -6.0675    0.4832    1.2472 C   0  0  0  0  0  0  0  0  0  0  0  0
   -5.9874    0.2955    2.6299 C   0  0  0  0  0  0  0  0  0  0  0  0
   -6.7806   -0.6738    3.2645 C   0  0  0  0  0  0  0  0  0  0  0  0
   -6.6997   -0.8689    4.7282 C   0  0  0  0  0  0  0  0  0  0  0  0
   -7.6618   -1.4295    5.4914 N   0  0  0  0  0  4  0  0  0  0  0  0
   -7.2003   -1.4005    6.7295 N   0  0  0  0  0  0  0  0  0  0  0  0
   -5.9988   -0.8524    6.7417 N   0  0  0  0  0  4  0  0  0  0  0  0
   -5.6591   -0.5089    5.5106 N   0  0  0  0  0  4  0  0  0  0  0  0
   -7.6555   -1.4526    2.4881 C   0  0  0  0  0  0  0  0  0  0  0  0
   -7.7287   -1.2723    1.1051 C   0  0  0  0  0  0  0  0  0  0  0  0
   -1.4806   -4.7348   -5.4961 H   0  0  0  0  0  0  0  0  0  0  0  0
   -3.2688   -4.6303   -5.2821 H   0  0  0  0  0  0  0  0  0  0  0  0
   -2.2686   -5.3602   -3.9740 H   0  0  0  0  0  0  0  0  0  0  0  0
    0.1145   -4.6866   -3.6407 H   0  0  0  0  0  0  0  0  0  0  0  0
    1.9866   -3.9170   -2.2755 H   0  0  0  0  0  0  0  0  0  0  0  0
    3.3805    1.9249   -1.6451 H   0  0  0  0  0  0  0  0  0  0  0  0
    5.6858    1.2305   -1.9673 H   0  0  0  0  0  0  0  0  0  0  0  0
    6.1252    1.5893   -0.2785 H   0  0  0  0  0  0  0  0  0  0  0  0
    5.0536    3.7095   -2.2825 H   0  0  0  0  0  0  0  0  0  0  0  0
    6.7738    3.3343   -2.0004 H   0  0  0  0  0  0  0  0  0  0  0  0
    6.5457    5.1145   -0.5543 H   0  0  0  0  0  0  0  0  0  0  0  0
    6.2733    3.7695    0.5736 H   0  0  0  0  0  0  0  0  0  0  0  0
    4.3445    5.8485   -0.5417 H   0  0  0  0  0  0  0  0  0  0  0  0
    4.5693    5.2842    1.1319 H   0  0  0  0  0  0  0  0  0  0  0  0
    2.8801    4.0782   -1.1193 H   0  0  0  0  0  0  0  0  0  0  0  0
    2.4352    4.5050    0.5460 H   0  0  0  0  0  0  0  0  0  0  0  0
    2.4566    2.2066    0.7244 H   0  0  0  0  0  0  0  0  0  0  0  0
    4.1161    2.5688    1.2870 H   0  0  0  0  0  0  0  0  0  0  0  0
    5.5048   -0.1977    2.2827 H   0  0  0  0  0  0  0  0  0  0  0  0
    3.9386   -2.0092    1.9863 H   0  0  0  0  0  0  0  0  0  0  0  0
    4.9970   -2.3548   -0.8923 H   0  0  0  0  0  0  0  0  0  0  0  0
    5.8236   -2.7095    0.6621 H   0  0  0  0  0  0  0  0  0  0  0  0
    5.0828   -4.9009   -0.2887 H   0  0  0  0  0  0  0  0  0  0  0  0
    2.8045   -5.5376    0.0265 H   0  0  0  0  0  0  0  0  0  0  0  0
    1.9320   -3.7183    1.7876 H   0  0  0  0  0  0  0  0  0  0  0  0
    1.0474   -3.7945    0.2547 H   0  0  0  0  0  0  0  0  0  0  0  0
    1.7342   -1.4637    1.1214 H   0  0  0  0  0  0  0  0  0  0  0  0
    0.0014   -0.1752   -1.5894 H   0  0  0  0  0  0  0  0  0  0  0  0
   -1.7457    1.2326   -3.0584 H   0  0  0  0  0  0  0  0  0  0  0  0
   -2.1331    0.5563   -1.4245 H   0  0  0  0  0  0  0  0  0  0  0  0
   -4.1437    0.9507   -3.7264 H   0  0  0  0  0  0  0  0  0  0  0  0
   -3.9471    2.0017   -2.2769 H   0  0  0  0  0  0  0  0  0  0  0  0
   -4.8573   -0.9521   -2.3695 H   0  0  0  0  0  0  0  0  0  0  0  0
   -4.3812   -0.1322   -0.8437 H   0  0  0  0  0  0  0  0  0  0  0  0
   -6.1774    1.6698   -1.3490 H   0  0  0  0  0  0  0  0  0  0  0  0
   -6.6552    0.6769   -2.7644 H   0  0  0  0  0  0  0  0  0  0  0  0
   -5.4477    1.2468    0.7943 H   0  0  0  0  0  0  0  0  0  0  0  0
   -5.3145    0.9234    3.1987 H   0  0  0  0  0  0  0  0  0  0  0  0
   -8.5945   -1.7991    5.2048 H   0  0  0  0  0  0  0  0  0  0  0  0
   -7.7091   -1.7538    7.5715 H   0  0  0  0  0  0  0  0  0  0  0  0
   -5.4053   -0.7206    7.5908 H   0  0  0  0  0  0  0  0  0  0  0  0
   -4.7519   -0.0713    5.2369 H   0  0  0  0  0  0  0  0  0  0  0  0
   -8.2675   -2.2191    2.9437 H   0  0  0  0  0  0  0  0  0  0  0  0
   -8.4020   -1.8869    0.5205 H   0  0  0  0  0  0  0  0  0  0  0  0
  1  2  1  0
  2  3  1  0
  3  4  2  0
  4  5  1  0
  5  6  2  0
  6  7  1  0
  7  8  2  0
  8  9  1  0
  9 10  1  0
 10 11  1  0
 11 12  1  0
 12 13  1  0
 13 14  1  0
 14 15  1  0
 15 16  1  0
  9 17  2  0
 17 18  1  0
 17 19  1  0
 19 20  1  0
 20 21  1  0
 21 22  2  0
 22 23  1  0
 23 24  1  0
  6 25  1  0
 25 26  2  0
 26 27  1  0
 27 28  1  0
 28 29  1  0
 29 30  1  0
 30 31  1  0
 31 32  1  0
 32 33  1  0
 33 34  2  0
 34 35  1  0
 35 36  2  0
 36 37  1  0
 37 38  2  0
 38 39  1  0
 39 40  1  0
 40 41  2  0
 36 42  1  0
 42 43  2  0
 26  3  1  0
 43 33  1  0
 24  7  1  0
 41 37  1  0
 16 10  1  0
 24 19  1  0
  1 44  1  0
  1 45  1  0
  1 46  1  0
  4 47  1  0
  5 48  1  0
 10 49  1  0
 11 50  1  0
 11 51  1  0
 12 52  1  0
 12 53  1  0
 13 54  1  0
 13 55  1  0
 14 56  1  0
 14 57  1  0
 15 58  1  0
 15 59  1  0
 16 60  1  0
 16 61  1  0
 18 62  1  0
 19 63  1  1
 20 64  1  0
 20 65  1  0
 21 66  1  0
 22 67  1  0
 23 68  1  0
 23 69  1  0
 24 70  1  1
 25 71  1  0
 28 72  1  0
 28 73  1  0
 29 74  1  0
 29 75  1  0
 30 76  1  0
 30 77  1  0
 31 78  1  0
 31 79  1  0
 34 80  1  0
 35 81  1  0
 38 82  1  0
 39 83  1  0
 40 84  1  0
 41 85  1  0
 42 86  1  0
 43 87  1  0
M  CHG  4   9   1  38   1  40   1  41   1
M  END
>  <UniqueID>  (7) 
6

>  <SMILES>  (7) 
COc1ccc(C2=N[N+](C3CCCCCC3)=C(O)[C@@H]3CC=CC[C@H]23)cc1OCCCCOc1ccc(-c2[nH+][nH][nH+][nH+]2)cc1

>  <Energy>  (7) 
146.12961708940324

>  <Genealogy>  (7) 
COc1ccc(C2=N[NH+](C3CCCCCC3)C(=O)[C@@H]3CC=CC[C@H]23)cc1OCCCCOc1ccc(-c2[nH+][nH][nH+][nH+]2)cc1 (protonated)
COc1ccc(C2=N[N+](C3CCCCCC3)=C(O)[C@@H]3CC=CC[C@H]23)cc1OCCCCOc1ccc(-c2[nH+][nH][nH+][nH+]2)cc1 (tautomer)
COc1ccc(C2=N[N+](C3CCCCCC3)=C(O)[C@@H]3CC=CC[C@H]23)cc1OCCCCOc1ccc(-c2[nH+][nH][nH+][nH+]2)cc1 (3D coordinates assigned)
COc1ccc(C2=N[N+](C3CCCCCC3)=C(O)[C@@H]3CC=CC[C@H]23)cc1OCCCCOc1ccc(-c2[nH+][nH][nH+][nH+]2)cc1 (nonaromatic ring conformer: 146.12961708940324 kcal/mol)

$$$$
