EMPTY MOLECULE DESCRIBING GYPSUM-DL PARAMETERS
     RDKit          2D

  0  0  0  0  0  0  0  0  0  0999 V2000
M  END
>  <source>  (1) 
/home/njs00/galene/data/lig/cofactors.smi

>  <output_folder>  (1) 
data/lig

>  <separate_output_files>  (1) 
False

>  <add_pdb_output>  (1) 
False

>  <add_html_output>  (1) 
False

>  <num_processors>  (1) 
-1

>  <start_time>  (1) 
0

>  <end_time>  (1) 
0

>  <run_time>  (1) 
0

>  <min_ph>  (1) 
-6.0

>  <max_ph>  (1) 
-8.0

>  <pka_precision>  (1) 
1.0

>  <thoroughness>  (1) 
3

>  <max_variants_per_compound>  (1) 
5

>  <second_embed>  (1) 
False

>  <2d_output_only>  (1) 
False

>  <skip_optimize_geometry>  (1) 
False

>  <skip_alternate_ring_conformations>  (1) 
False

>  <skip_adding_hydrogen>  (1) 
False

>  <skip_making_tautomers>  (1) 
False

>  <skip_enumerate_chiral_mol>  (1) 
False

>  <skip_enumerate_double_bonds>  (1) 
False

>  <let_tautomers_change_chirality>  (1) 
False

>  <use_durrant_lab_filters>  (1) 
False

>  <job_manager>  (1) 
multiprocessing

>  <cache_prerun>  (1) 
False

>  <test>  (1) 
False

>  <Parallelizer>  (1) 
<gypsum_dl.Parallelizer.Parallelizer object at 0x7f9524097050>

$$$$
sam
     RDKit          3D

 51 53  0  0  0  0  0  0  0  0999 V2000
   -1.5226   -3.6920   -0.1468 C   0  0  0  0  0  0  0  0  0  0  0  0
   -0.0755   -2.7668   -0.6088 S   0  0  0  0  0  3  0  0  0  0  0  0
   -0.5198   -1.4194   -1.6998 C   0  0  0  0  0  0  0  0  0  0  0  0
   -1.3120   -0.3312   -0.9619 C   0  0  0  0  0  0  0  0  0  0  0  0
   -1.6048    0.8840   -1.8677 C   0  0  2  0  0  0  0  0  0  0  0  0
   -2.1740    1.9890   -1.0942 N   0  0  0  0  0  0  0  0  0  0  0  0
   -2.5490    0.5198   -2.9786 C   0  0  0  0  0  0  0  0  0  0  0  0
   -2.1656    0.5791   -4.1776 O   0  0  0  0  0  0  0  0  0  0  0  0
   -3.8462    0.1086   -2.6856 O   0  0  0  0  0  0  0  0  0  0  0  0
    0.8110   -2.2589    0.8606 C   0  0  0  0  0  0  0  0  0  0  0  0
    2.1395   -1.5718    0.5154 C   0  0  1  0  0  0  0  0  0  0  0  0
    1.8968   -0.3601   -0.1529 O   0  0  0  0  0  0  0  0  0  0  0  0
    3.0044    0.4686    0.0986 C   0  0  1  0  0  0  0  0  0  0  0  0
    2.5722    1.8682    0.1342 N   0  0  0  0  0  0  0  0  0  0  0  0
    3.1050    2.9041   -0.5634 C   0  0  0  0  0  0  0  0  0  0  0  0
    2.4697    4.0876   -0.3442 N   0  0  0  0  0  0  0  0  0  0  0  0
    1.5046    3.7515    0.5330 C   0  0  0  0  0  0  0  0  0  0  0  0
    0.5296    4.5514    1.1267 C   0  0  0  0  0  0  0  0  0  0  0  0
    0.4338    5.8208    0.8737 N   0  0  0  0  0  4  0  0  0  0  0  0
   -0.3366    3.9492    1.9966 N   0  0  0  0  0  0  0  0  0  0  0  0
   -0.2535    2.6098    2.2790 C   0  0  0  0  0  0  0  0  0  0  0  0
    0.7064    1.8355    1.6889 N   0  0  0  0  0  0  0  0  0  0  0  0
    1.5649    2.4302    0.8218 C   0  0  0  0  0  0  0  0  0  0  0  0
    3.6530    0.0498    1.4211 C   0  0  2  0  0  0  0  0  0  0  0  0
    5.0361   -0.1266    1.2395 O   0  0  0  0  0  0  0  0  0  0  0  0
    2.9514   -1.2550    1.7687 C   0  0  2  0  0  0  0  0  0  0  0  0
    3.8524   -2.2972    2.0448 O   0  0  0  0  0  0  0  0  0  0  0  0
   -1.2171   -4.5988    0.4143 H   0  0  0  0  0  0  0  0  0  0  0  0
   -2.0773   -3.9929   -1.0591 H   0  0  0  0  0  0  0  0  0  0  0  0
   -2.1766   -3.0664    0.4947 H   0  0  0  0  0  0  0  0  0  0  0  0
    0.4062   -0.9924   -2.1378 H   0  0  0  0  0  0  0  0  0  0  0  0
   -1.1309   -1.8337   -2.5291 H   0  0  0  0  0  0  0  0  0  0  0  0
   -2.2639   -0.7579   -0.5773 H   0  0  0  0  0  0  0  0  0  0  0  0
   -0.7229    0.0183   -0.0895 H   0  0  0  0  0  0  0  0  0  0  0  0
   -0.6454    1.2351   -2.3123 H   0  0  0  0  0  0  0  0  0  0  0  0
   -2.9779    1.6392   -0.5225 H   0  0  0  0  0  0  0  0  0  0  0  0
   -1.4478    2.3393   -0.4283 H   0  0  0  0  0  0  0  0  0  0  0  0
   -4.4906   -0.1442   -3.4251 H   0  0  0  0  0  0  0  0  0  0  0  0
    1.0151   -3.1669    1.4674 H   0  0  0  0  0  0  0  0  0  0  0  0
    0.1662   -1.5826    1.4602 H   0  0  0  0  0  0  0  0  0  0  0  0
    2.7272   -2.2382   -0.1580 H   0  0  0  0  0  0  0  0  0  0  0  0
    3.7262    0.3317   -0.7396 H   0  0  0  0  0  0  0  0  0  0  0  0
    3.9479    2.8028   -1.2349 H   0  0  0  0  0  0  0  0  0  0  0  0
    1.0866    6.2980    0.2115 H   0  0  0  0  0  0  0  0  0  0  0  0
   -0.3068    6.3979    1.3321 H   0  0  0  0  0  0  0  0  0  0  0  0
   -0.9545    2.1653    2.9729 H   0  0  0  0  0  0  0  0  0  0  0  0
    0.7687    0.8189    1.9109 H   0  0  0  0  0  0  0  0  0  0  0  0
    3.4611    0.8076    2.2182 H   0  0  0  0  0  0  0  0  0  0  0  0
    5.4493   -0.0900    2.1415 H   0  0  0  0  0  0  0  0  0  0  0  0
    2.2740   -1.0867    2.6403 H   0  0  0  0  0  0  0  0  0  0  0  0
    4.1677   -2.1584    2.9758 H   0  0  0  0  0  0  0  0  0  0  0  0
  2  1  1  1
  2  3  1  0
  3  4  1  0
  4  5  1  0
  5  6  1  0
  5  7  1  0
  7  8  2  0
  7  9  1  0
  2 10  1  0
 10 11  1  0
 11 12  1  0
 12 13  1  0
 13 14  1  0
 14 15  1  0
 15 16  2  0
 16 17  1  0
 17 18  1  0
 18 19  2  3
 18 20  1  0
 20 21  2  0
 21 22  1  0
 22 23  1  0
 13 24  1  0
 24 25  1  0
 24 26  1  0
 26 27  1  0
 26 11  1  0
 23 14  1  0
 23 17  2  0
  1 28  1  0
  1 29  1  0
  1 30  1  0
  3 31  1  0
  3 32  1  0
  4 33  1  0
  4 34  1  0
  5 35  1  6
  6 36  1  0
  6 37  1  0
  9 38  1  0
 10 39  1  0
 10 40  1  0
 11 41  1  6
 13 42  1  6
 15 43  1  0
 19 44  1  0
 19 45  1  0
 21 46  1  0
 22 47  1  0
 24 48  1  1
 25 49  1  0
 26 50  1  1
 27 51  1  0
M  CHG  2   2   1  19   1
M  END
>  <UniqueID>  (2) 
1

>  <SMILES>  (2) 
C[S@@+](CC[C@H](N)C(=O)O)C[C@H]1O[C@@H](n2cnc3c(=[NH2+])nc[nH]c32)[C@H](O)[C@@H]1O

>  <Energy>  (2) 
75.14201823245213

>  <Genealogy>  (2) 
C[S+](CC[C@H](N)C(=O)O)C[C@H]1O[C@@H](n2cnc3c([NH3+])ncnc32)[C@H](O)[C@@H]1O (protonated)
C[S+](CC[C@H](N)C(=O)O)C[C@H]1O[C@@H](n2cnc3c(=[NH2+])nc[nH]c32)[C@H](O)[C@@H]1O (tautomer)
C[S@@+](CC[C@H](N)C(=O)O)C[C@H]1O[C@@H](n2cnc3c(=[NH2+])nc[nH]c32)[C@H](O)[C@@H]1O (chirality)
C[S@@+](CC[C@H](N)C(=O)O)C[C@H]1O[C@@H](n2cnc3c(=[NH2+])nc[nH]c32)[C@H](O)[C@@H]1O (3D coordinates assigned)
C[S@@+](CC[C@H](N)C(=O)O)C[C@H]1O[C@@H](n2cnc3c(=[NH2+])nc[nH]c32)[C@H](O)[C@@H]1O (nonaromatic ring conformer: 75.14201823245213 kcal/mol)

$$$$
sam
     RDKit          3D

 51 53  0  0  0  0  0  0  0  0999 V2000
    1.5612    5.2912    0.6579 C   0  0  0  0  0  0  0  0  0  0  0  0
    1.0674    3.7309   -0.0387 S   0  0  0  0  0  3  0  0  0  0  0  0
    2.4875    2.6574   -0.1912 C   0  0  0  0  0  0  0  0  0  0  0  0
    2.6723    2.2288   -1.6502 C   0  0  0  0  0  0  0  0  0  0  0  0
    3.8035    1.1955   -1.8097 C   0  0  2  0  0  0  0  0  0  0  0  0
    4.1326    1.0282   -3.2273 N   0  0  0  0  0  0  0  0  0  0  0  0
    3.4425   -0.1334   -1.1826 C   0  0  0  0  0  0  0  0  0  0  0  0
    4.1365   -0.5814   -0.2324 O   0  0  0  0  0  0  0  0  0  0  0  0
    2.3561   -0.8787   -1.6359 O   0  0  0  0  0  0  0  0  0  0  0  0
   -0.1702    2.9743    1.0038 C   0  0  0  0  0  0  0  0  0  0  0  0
   -0.9717    1.9147    0.2356 C   0  0  1  0  0  0  0  0  0  0  0  0
   -0.1100    0.9363   -0.2991 O   0  0  0  0  0  0  0  0  0  0  0  0
   -0.7370   -0.3213   -0.1665 C   0  0  1  0  0  0  0  0  0  0  0  0
    0.1192   -1.2076    0.6250 N   0  0  0  0  0  0  0  0  0  0  0  0
    0.8381   -0.9054    1.7388 C   0  0  0  0  0  0  0  0  0  0  0  0
    1.5072   -1.9728    2.2558 N   0  0  0  0  0  0  0  0  0  0  0  0
    1.1673   -2.9695    1.4170 C   0  0  0  0  0  0  0  0  0  0  0  0
    1.5480   -4.3077    1.4352 C   0  0  0  0  0  0  0  0  0  0  0  0
    2.4131   -4.8283    2.4508 N   0  0  0  0  0  4  0  0  0  0  0  0
    1.0415   -5.1209    0.4582 N   0  0  0  0  0  0  0  0  0  0  0  0
    0.1980   -4.6368   -0.5099 C   0  0  0  0  0  0  0  0  0  0  0  0
   -0.1644   -3.3181   -0.5187 N   0  0  0  0  0  0  0  0  0  0  0  0
    0.3353   -2.5166    0.4524 C   0  0  0  0  0  0  0  0  0  0  0  0
   -2.1011   -0.1468    0.5014 C   0  0  2  0  0  0  0  0  0  0  0  0
   -3.1087   -0.1671   -0.4793 O   0  0  0  0  0  0  0  0  0  0  0  0
   -1.9854    1.2197    1.1340 C   0  0  2  0  0  0  0  0  0  0  0  0
   -3.2060    1.9141    1.1464 O   0  0  0  0  0  0  0  0  0  0  0  0
    2.3384    5.7542    0.0161 H   0  0  0  0  0  0  0  0  0  0  0  0
    1.9697    5.1288    1.6764 H   0  0  0  0  0  0  0  0  0  0  0  0
    0.6820    5.9652    0.7159 H   0  0  0  0  0  0  0  0  0  0  0  0
    2.3393    1.7701    0.4592 H   0  0  0  0  0  0  0  0  0  0  0  0
    3.3934    3.1967    0.1582 H   0  0  0  0  0  0  0  0  0  0  0  0
    1.7212    1.8165   -2.0503 H   0  0  0  0  0  0  0  0  0  0  0  0
    2.9215    3.1317   -2.2501 H   0  0  0  0  0  0  0  0  0  0  0  0
    4.7088    1.5974   -1.3001 H   0  0  0  0  0  0  0  0  0  0  0  0
    4.9227    0.3471   -3.3112 H   0  0  0  0  0  0  0  0  0  0  0  0
    3.3131    0.6233   -3.7357 H   0  0  0  0  0  0  0  0  0  0  0  0
    1.7611   -0.5557   -2.3882 H   0  0  0  0  0  0  0  0  0  0  0  0
    0.3361    2.5218    1.8826 H   0  0  0  0  0  0  0  0  0  0  0  0
   -0.8614    3.7646    1.3664 H   0  0  0  0  0  0  0  0  0  0  0  0
   -1.5003    2.4101   -0.6107 H   0  0  0  0  0  0  0  0  0  0  0  0
   -0.8608   -0.7548   -1.1840 H   0  0  0  0  0  0  0  0  0  0  0  0
    0.8795    0.0830    2.1757 H   0  0  0  0  0  0  0  0  0  0  0  0
    1.9202   -4.7922    3.3719 H   0  0  0  0  0  0  0  0  0  0  0  0
    2.6666   -5.8193    2.2335 H   0  0  0  0  0  0  0  0  0  0  0  0
    3.2862   -4.2546    2.4925 H   0  0  0  0  0  0  0  0  0  0  0  0
   -0.1846   -5.3036   -1.2701 H   0  0  0  0  0  0  0  0  0  0  0  0
   -2.2869   -0.9338    1.2709 H   0  0  0  0  0  0  0  0  0  0  0  0
   -3.9601   -0.3721   -0.0114 H   0  0  0  0  0  0  0  0  0  0  0  0
   -1.5849    1.1132    2.1708 H   0  0  0  0  0  0  0  0  0  0  0  0
   -3.7520    1.5077    1.8687 H   0  0  0  0  0  0  0  0  0  0  0  0
  2  1  1  1
  2  3  1  0
  3  4  1  0
  4  5  1  0
  5  6  1  0
  5  7  1  0
  7  8  2  0
  7  9  1  0
  2 10  1  0
 10 11  1  0
 11 12  1  0
 12 13  1  0
 13 14  1  0
 14 15  1  0
 15 16  2  0
 16 17  1  0
 17 18  2  0
 18 19  1  0
 18 20  1  0
 20 21  2  0
 21 22  1  0
 22 23  2  0
 13 24  1  0
 24 25  1  0
 24 26  1  0
 26 27  1  0
 26 11  1  0
 23 14  1  0
 23 17  1  0
  1 28  1  0
  1 29  1  0
  1 30  1  0
  3 31  1  0
  3 32  1  0
  4 33  1  0
  4 34  1  0
  5 35  1  1
  6 36  1  0
  6 37  1  0
  9 38  1  0
 10 39  1  0
 10 40  1  0
 11 41  1  6
 13 42  1  6
 15 43  1  0
 19 44  1  0
 19 45  1  0
 19 46  1  0
 21 47  1  0
 24 48  1  1
 25 49  1  0
 26 50  1  1
 27 51  1  0
M  CHG  2   2   1  19   1
M  END
>  <UniqueID>  (3) 
2

>  <SMILES>  (3) 
C[S@@+](CC[C@H](N)C(=O)O)C[C@H]1O[C@@H](n2cnc3c([NH3+])ncnc32)[C@H](O)[C@@H]1O

>  <Energy>  (3) 
76.56485864367365

>  <Genealogy>  (3) 
C[S+](CC[C@H](N)C(=O)O)C[C@H]1O[C@@H](n2cnc3c([NH3+])ncnc32)[C@H](O)[C@@H]1O (protonated)
C[S@@+](CC[C@H](N)C(=O)O)C[C@H]1O[C@@H](n2cnc3c([NH3+])ncnc32)[C@H](O)[C@@H]1O (chirality)
C[S@@+](CC[C@H](N)C(=O)O)C[C@H]1O[C@@H](n2cnc3c([NH3+])ncnc32)[C@H](O)[C@@H]1O (3D coordinates assigned)
C[S@@+](CC[C@H](N)C(=O)O)C[C@H]1O[C@@H](n2cnc3c([NH3+])ncnc32)[C@H](O)[C@@H]1O (nonaromatic ring conformer: 76.56485864367365 kcal/mol)

$$$$
sam
     RDKit          3D

 51 53  0  0  0  0  0  0  0  0999 V2000
   -0.9695   -4.2808    0.0545 C   0  0  0  0  0  0  0  0  0  0  0  0
   -0.2285   -2.6806   -0.1788 S   0  0  0  0  0  3  0  0  0  0  0  0
   -1.5005   -1.4243   -0.1951 C   0  0  0  0  0  0  0  0  0  0  0  0
   -1.2095   -0.3783   -1.2752 C   0  0  0  0  0  0  0  0  0  0  0  0
   -2.2950    0.7125   -1.3218 C   0  0  2  0  0  0  0  0  0  0  0  0
   -3.5719    0.1531   -1.7719 N   0  0  0  0  0  0  0  0  0  0  0  0
   -1.8683    1.8564   -2.2111 C   0  0  0  0  0  0  0  0  0  0  0  0
   -1.8091    3.0226   -1.7402 O   0  0  0  0  0  0  0  0  0  0  0  0
   -1.5486    1.6508   -3.5515 O   0  0  0  0  0  0  0  0  0  0  0  0
    0.9715   -2.3771    1.1131 C   0  0  0  0  0  0  0  0  0  0  0  0
    2.2764   -1.8121    0.5353 C   0  0  1  0  0  0  0  0  0  0  0  0
    2.0097   -0.6278   -0.1868 O   0  0  0  0  0  0  0  0  0  0  0  0
    3.0251    0.2908    0.1312 C   0  0  1  0  0  0  0  0  0  0  0  0
    2.5263    1.6634    0.0058 N   0  0  0  0  0  0  0  0  0  0  0  0
    3.1305    2.6870   -0.6510 C   0  0  0  0  0  0  0  0  0  0  0  0
    2.4333    3.8543   -0.5943 N   0  0  0  0  0  0  0  0  0  0  0  0
    1.3532    3.5223    0.1380 C   0  0  0  0  0  0  0  0  0  0  0  0
    0.2774    4.3136    0.5373 C   0  0  0  0  0  0  0  0  0  0  0  0
    0.1853    5.5658    0.2086 N   0  0  0  0  0  4  0  0  0  0  0  0
   -0.6939    3.7216    1.2960 N   0  0  0  0  0  0  0  0  0  0  0  0
   -0.6167    2.4006    1.6549 C   0  0  0  0  0  0  0  0  0  0  0  0
    0.4437    1.6352    1.2570 N   0  0  0  0  0  0  0  0  0  0  0  0
    1.4072    2.2186    0.5000 C   0  0  0  0  0  0  0  0  0  0  0  0
    3.4999   -0.0035    1.5449 C   0  0  2  0  0  0  0  0  0  0  0  0
    4.8424    0.3653    1.7282 O   0  0  0  0  0  0  0  0  0  0  0  0
    3.3013   -1.5032    1.6460 C   0  0  2  0  0  0  0  0  0  0  0  0
    4.5000   -2.2179    1.4479 O   0  0  0  0  0  0  0  0  0  0  0  0
   -0.1799   -5.0599    0.0409 H   0  0  0  0  0  0  0  0  0  0  0  0
   -1.4979   -4.3063    1.0298 H   0  0  0  0  0  0  0  0  0  0  0  0
   -1.6928   -4.4767   -0.7634 H   0  0  0  0  0  0  0  0  0  0  0  0
   -2.4767   -1.9120   -0.4012 H   0  0  0  0  0  0  0  0  0  0  0  0
   -1.5531   -0.9415    0.8036 H   0  0  0  0  0  0  0  0  0  0  0  0
   -1.1334   -0.8843   -2.2622 H   0  0  0  0  0  0  0  0  0  0  0  0
   -0.2327    0.1005   -1.0596 H   0  0  0  0  0  0  0  0  0  0  0  0
   -2.4325    1.1073   -0.2900 H   0  0  0  0  0  0  0  0  0  0  0  0
   -4.2957    0.9083   -1.7469 H   0  0  0  0  0  0  0  0  0  0  0  0
   -3.4874   -0.1670   -2.7641 H   0  0  0  0  0  0  0  0  0  0  0  0
   -1.5906    0.7322   -3.9747 H   0  0  0  0  0  0  0  0  0  0  0  0
    0.5398   -1.6806    1.8609 H   0  0  0  0  0  0  0  0  0  0  0  0
    1.1891   -3.3374    1.6276 H   0  0  0  0  0  0  0  0  0  0  0  0
    2.6899   -2.5664   -0.1714 H   0  0  0  0  0  0  0  0  0  0  0  0
    3.8655    0.1378   -0.5853 H   0  0  0  0  0  0  0  0  0  0  0  0
    4.0747    2.5894   -1.1712 H   0  0  0  0  0  0  0  0  0  0  0  0
   -0.6326    6.1365    0.5201 H   0  0  0  0  0  0  0  0  0  0  0  0
    0.9172    6.0349   -0.3716 H   0  0  0  0  0  0  0  0  0  0  0  0
   -1.4031    1.9628    2.2554 H   0  0  0  0  0  0  0  0  0  0  0  0
    0.4995    0.6334    1.5361 H   0  0  0  0  0  0  0  0  0  0  0  0
    2.8519    0.5018    2.2987 H   0  0  0  0  0  0  0  0  0  0  0  0
    4.8546    1.3560    1.7894 H   0  0  0  0  0  0  0  0  0  0  0  0
    2.9130   -1.7566    2.6579 H   0  0  0  0  0  0  0  0  0  0  0  0
    4.8570   -1.9809    0.5515 H   0  0  0  0  0  0  0  0  0  0  0  0
  2  1  1  1
  2  3  1  0
  3  4  1  0
  4  5  1  0
  5  6  1  0
  5  7  1  0
  7  8  2  0
  7  9  1  0
  2 10  1  0
 10 11  1  0
 11 12  1  0
 12 13  1  0
 13 14  1  0
 14 15  1  0
 15 16  2  0
 16 17  1  0
 17 18  1  0
 18 19  2  3
 18 20  1  0
 20 21  2  0
 21 22  1  0
 22 23  1  0
 13 24  1  0
 24 25  1  0
 24 26  1  0
 26 27  1  0
 26 11  1  0
 23 14  1  0
 23 17  2  0
  1 28  1  0
  1 29  1  0
  1 30  1  0
  3 31  1  0
  3 32  1  0
  4 33  1  0
  4 34  1  0
  5 35  1  1
  6 36  1  0
  6 37  1  0
  9 38  1  0
 10 39  1  0
 10 40  1  0
 11 41  1  6
 13 42  1  6
 15 43  1  0
 19 44  1  0
 19 45  1  0
 21 46  1  0
 22 47  1  0
 24 48  1  1
 25 49  1  0
 26 50  1  1
 27 51  1  0
M  CHG  2   2   1  19   1
M  END
>  <UniqueID>  (4) 
3

>  <SMILES>  (4) 
C[S@@+](CC[C@H](N)C(=O)O)C[C@H]1O[C@@H](n2cnc3c(=[NH2+])nc[nH]c32)[C@H](O)[C@@H]1O

>  <Energy>  (4) 
76.86036338366837

>  <Genealogy>  (4) 
C[S+](CC[C@H](N)C(=O)O)C[C@H]1O[C@@H](n2cnc3c([NH3+])ncnc32)[C@H](O)[C@@H]1O (protonated)
C[S+](CC[C@H](N)C(=O)O)C[C@H]1O[C@@H](n2cnc3c(=[NH2+])nc[nH]c32)[C@H](O)[C@@H]1O (tautomer)
C[S@@+](CC[C@H](N)C(=O)O)C[C@H]1O[C@@H](n2cnc3c(=[NH2+])nc[nH]c32)[C@H](O)[C@@H]1O (chirality)
C[S@@+](CC[C@H](N)C(=O)O)C[C@H]1O[C@@H](n2cnc3c(=[NH2+])nc[nH]c32)[C@H](O)[C@@H]1O (3D coordinates assigned)
C[S@@+](CC[C@H](N)C(=O)O)C[C@H]1O[C@@H](n2cnc3c(=[NH2+])nc[nH]c32)[C@H](O)[C@@H]1O (nonaromatic ring conformer: 76.86036338366837 kcal/mol)

$$$$
sam
     RDKit          3D

 51 53  0  0  0  0  0  0  0  0999 V2000
    1.4782   -0.3188    1.8013 C   0  0  0  0  0  0  0  0  0  0  0  0
    0.2975    1.0069    1.6780 S   0  0  0  0  0  3  0  0  0  0  0  0
    1.0835    2.4955    1.0743 C   0  0  0  0  0  0  0  0  0  0  0  0
    0.1201    3.6925    1.0556 C   0  0  0  0  0  0  0  0  0  0  0  0
   -0.3635    4.1240    2.4568 C   0  0  2  0  0  0  0  0  0  0  0  0
   -1.3418    5.2048    2.3300 N   0  0  0  0  0  0  0  0  0  0  0  0
    0.7907    4.5947    3.2982 C   0  0  0  0  0  0  0  0  0  0  0  0
    1.1584    3.9217    4.2982 O   0  0  0  0  0  0  0  0  0  0  0  0
    1.4657    5.7651    2.9635 O   0  0  0  0  0  0  0  0  0  0  0  0
   -1.1415    0.5261    0.7290 C   0  0  0  0  0  0  0  0  0  0  0  0
   -0.8516    0.4630   -0.7784 C   0  0  1  0  0  0  0  0  0  0  0  0
    0.1832   -0.4542   -1.0424 O   0  0  0  0  0  0  0  0  0  0  0  0
   -0.0767   -1.0413   -2.3003 C   0  0  1  0  0  0  0  0  0  0  0  0
    0.0188   -2.4994   -2.1939 N   0  0  0  0  0  0  0  0  0  0  0  0
    0.4584   -3.3626   -3.1454 C   0  0  0  0  0  0  0  0  0  0  0  0
    0.3483   -4.6699   -2.7812 N   0  0  0  0  0  0  0  0  0  0  0  0
   -0.1950   -4.5930   -1.5507 C   0  0  0  0  0  0  0  0  0  0  0  0
   -0.5583   -5.6152   -0.6750 C   0  0  0  0  0  0  0  0  0  0  0  0
   -0.3792   -6.8672   -0.9763 N   0  0  0  0  0  4  0  0  0  0  0  0
   -1.1175   -5.2510    0.5237 N   0  0  0  0  0  0  0  0  0  0  0  0
   -1.3154   -3.9307    0.8455 C   0  0  0  0  0  0  0  0  0  0  0  0
   -0.9559   -2.9413   -0.0251 N   0  0  0  0  0  0  0  0  0  0  0  0
   -0.3987   -3.3017   -1.2050 C   0  0  0  0  0  0  0  0  0  0  0  0
   -1.4684   -0.6246   -2.7879 C   0  0  2  0  0  0  0  0  0  0  0  0
   -1.3399    0.2971   -3.8427 O   0  0  0  0  0  0  0  0  0  0  0  0
   -2.0779    0.0222   -1.5667 C   0  0  2  0  0  0  0  0  0  0  0  0
   -2.8957    1.1132   -1.9053 O   0  0  0  0  0  0  0  0  0  0  0  0
    2.2016   -0.0909    2.6106 H   0  0  0  0  0  0  0  0  0  0  0  0
    0.9505   -1.2663    2.0353 H   0  0  0  0  0  0  0  0  0  0  0  0
    2.0268   -0.4261    0.8436 H   0  0  0  0  0  0  0  0  0  0  0  0
    1.9679    2.7200    1.7063 H   0  0  0  0  0  0  0  0  0  0  0  0
    1.4512    2.3082    0.0438 H   0  0  0  0  0  0  0  0  0  0  0  0
   -0.7577    3.4369    0.4243 H   0  0  0  0  0  0  0  0  0  0  0  0
    0.6308    4.5496    0.5640 H   0  0  0  0  0  0  0  0  0  0  0  0
   -0.8551    3.2598    2.9586 H   0  0  0  0  0  0  0  0  0  0  0  0
   -2.1737    4.8379    1.8123 H   0  0  0  0  0  0  0  0  0  0  0  0
   -1.6871    5.4510    3.2869 H   0  0  0  0  0  0  0  0  0  0  0  0
    2.2496    6.0891    3.5173 H   0  0  0  0  0  0  0  0  0  0  0  0
   -1.4863   -0.4630    1.0970 H   0  0  0  0  0  0  0  0  0  0  0  0
   -1.9473    1.2646    0.9233 H   0  0  0  0  0  0  0  0  0  0  0  0
   -0.5306    1.4682   -1.1327 H   0  0  0  0  0  0  0  0  0  0  0  0
    0.7021   -0.6861   -3.0122 H   0  0  0  0  0  0  0  0  0  0  0  0
    0.8480   -3.0474   -4.1048 H   0  0  0  0  0  0  0  0  0  0  0  0
    0.0455   -7.1546   -1.8870 H   0  0  0  0  0  0  0  0  0  0  0  0
   -0.6566   -7.6237   -0.3114 H   0  0  0  0  0  0  0  0  0  0  0  0
   -1.4053   -5.9817    1.2134 H   0  0  0  0  0  0  0  0  0  0  0  0
   -1.7604   -3.6673    1.7960 H   0  0  0  0  0  0  0  0  0  0  0  0
   -2.0717   -1.5064   -3.1126 H   0  0  0  0  0  0  0  0  0  0  0  0
   -2.2034    0.2940   -4.3329 H   0  0  0  0  0  0  0  0  0  0  0  0
   -2.6613   -0.7486   -1.0083 H   0  0  0  0  0  0  0  0  0  0  0  0
   -3.4198    1.3362   -1.0928 H   0  0  0  0  0  0  0  0  0  0  0  0
  2  1  1  6
  2  3  1  0
  3  4  1  0
  4  5  1  0
  5  6  1  0
  5  7  1  0
  7  8  2  0
  7  9  1  0
  2 10  1  0
 10 11  1  0
 11 12  1  0
 12 13  1  0
 13 14  1  0
 14 15  1  0
 15 16  2  0
 16 17  1  0
 17 18  1  0
 18 19  2  3
 18 20  1  0
 20 21  1  0
 21 22  2  0
 22 23  1  0
 13 24  1  0
 24 25  1  0
 24 26  1  0
 26 27  1  0
 26 11  1  0
 23 14  1  0
 23 17  2  0
  1 28  1  0
  1 29  1  0
  1 30  1  0
  3 31  1  0
  3 32  1  0
  4 33  1  0
  4 34  1  0
  5 35  1  1
  6 36  1  0
  6 37  1  0
  9 38  1  0
 10 39  1  0
 10 40  1  0
 11 41  1  6
 13 42  1  6
 15 43  1  0
 19 44  1  0
 19 45  1  0
 20 46  1  0
 21 47  1  0
 24 48  1  6
 25 49  1  0
 26 50  1  1
 27 51  1  0
M  CHG  2   2   1  19   1
M  END
>  <UniqueID>  (5) 
4

>  <SMILES>  (5) 
C[S@@+](CC[C@H](N)C(=O)O)C[C@H]1O[C@@H](n2cnc3c(=[NH2+])[nH]cnc32)[C@H](O)[C@@H]1O

>  <Energy>  (5) 
77.20712209062374

>  <Genealogy>  (5) 
C[S+](CC[C@H](N)C(=O)O)C[C@H]1O[C@@H](n2cnc3c([NH3+])ncnc32)[C@H](O)[C@@H]1O (protonated)
C[S+](CC[C@H](N)C(=O)O)C[C@H]1O[C@@H](n2cnc3c(=[NH2+])[nH]cnc32)[C@H](O)[C@@H]1O (tautomer)
C[S@@+](CC[C@H](N)C(=O)O)C[C@H]1O[C@@H](n2cnc3c(=[NH2+])[nH]cnc32)[C@H](O)[C@@H]1O (chirality)
C[S@@+](CC[C@H](N)C(=O)O)C[C@H]1O[C@@H](n2cnc3c(=[NH2+])[nH]cnc32)[C@H](O)[C@@H]1O (3D coordinates assigned)
C[S@@+](CC[C@H](N)C(=O)O)C[C@H]1O[C@@H](n2cnc3c(=[NH2+])[nH]cnc32)[C@H](O)[C@@H]1O (nonaromatic ring conformer: 77.20712209062374 kcal/mol)

$$$$
sam
     RDKit          3D

 51 53  0  0  0  0  0  0  0  0999 V2000
    1.6227    4.7268    0.1781 C   0  0  0  0  0  0  0  0  0  0  0  0
    0.9632    3.1629   -0.3582 S   0  0  0  0  0  3  0  0  0  0  0  0
    2.2504    1.9237   -0.3768 C   0  0  0  0  0  0  0  0  0  0  0  0
    3.3456    2.2906   -1.3835 C   0  0  0  0  0  0  0  0  0  0  0  0
    4.3567    1.1464   -1.5959 C   0  0  2  0  0  0  0  0  0  0  0  0
    5.1475    0.9168   -0.3839 N   0  0  0  0  0  0  0  0  0  0  0  0
    5.2710    1.4941   -2.7419 C   0  0  0  0  0  0  0  0  0  0  0  0
    5.1600    0.8855   -3.8387 O   0  0  0  0  0  0  0  0  0  0  0  0
    6.2255    2.5004   -2.6149 O   0  0  0  0  0  0  0  0  0  0  0  0
   -0.3588    2.6733    0.7405 C   0  0  0  0  0  0  0  0  0  0  0  0
   -1.3659    1.7582    0.0260 C   0  0  1  0  0  0  0  0  0  0  0  0
   -0.7203    0.5692   -0.3839 O   0  0  0  0  0  0  0  0  0  0  0  0
   -1.3212   -0.5114    0.2938 C   0  0  1  0  0  0  0  0  0  0  0  0
   -0.2924   -1.4287    0.7866 N   0  0  0  0  0  0  0  0  0  0  0  0
    0.8654   -1.1215    1.4291 C   0  0  0  0  0  0  0  0  0  0  0  0
    1.5719   -2.2169    1.8233 N   0  0  0  0  0  0  0  0  0  0  0  0
    0.7969   -3.2350    1.4046 C   0  0  0  0  0  0  0  0  0  0  0  0
    0.9902   -4.6059    1.5413 C   0  0  0  0  0  0  0  0  0  0  0  0
    2.1475   -5.1392    2.1947 N   0  0  0  0  0  4  0  0  0  0  0  0
    0.0185   -5.4323    1.0463 N   0  0  0  0  0  0  0  0  0  0  0  0
   -1.1031   -4.9321    0.4339 C   0  0  0  0  0  0  0  0  0  0  0  0
   -1.2800   -3.5825    0.3050 N   0  0  0  0  0  0  0  0  0  0  0  0
   -0.3154   -2.7666    0.7948 C   0  0  0  0  0  0  0  0  0  0  0  0
   -2.1568    0.0335    1.4429 C   0  0  2  0  0  0  0  0  0  0  0  0
   -3.2801   -0.7700    1.6957 O   0  0  0  0  0  0  0  0  0  0  0  0
   -2.5434    1.3999    0.9381 C   0  0  2  0  0  0  0  0  0  0  0  0
   -3.7228    1.3395    0.1737 O   0  0  0  0  0  0  0  0  0  0  0  0
    0.7985    5.4633    0.2729 H   0  0  0  0  0  0  0  0  0  0  0  0
    2.3563    5.0983   -0.5660 H   0  0  0  0  0  0  0  0  0  0  0  0
    2.1212    4.6022    1.1614 H   0  0  0  0  0  0  0  0  0  0  0  0
    2.6755    1.8471    0.6456 H   0  0  0  0  0  0  0  0  0  0  0  0
    1.8026    0.9481   -0.6554 H   0  0  0  0  0  0  0  0  0  0  0  0
    3.8798    3.2003   -1.0329 H   0  0  0  0  0  0  0  0  0  0  0  0
    2.8624    2.5273   -2.3578 H   0  0  0  0  0  0  0  0  0  0  0  0
    3.8033    0.2138   -1.8546 H   0  0  0  0  0  0  0  0  0  0  0  0
    5.8799    0.2003   -0.5966 H   0  0  0  0  0  0  0  0  0  0  0  0
    4.5321    0.4740    0.3359 H   0  0  0  0  0  0  0  0  0  0  0  0
    6.3348    3.0165   -1.7502 H   0  0  0  0  0  0  0  0  0  0  0  0
    0.0728    2.1614    1.6266 H   0  0  0  0  0  0  0  0  0  0  0  0
   -0.8785    3.5924    1.0862 H   0  0  0  0  0  0  0  0  0  0  0  0
   -1.7388    2.2932   -0.8759 H   0  0  0  0  0  0  0  0  0  0  0  0
   -1.9792   -1.0427   -0.4309 H   0  0  0  0  0  0  0  0  0  0  0  0
    1.1897   -0.1092    1.6276 H   0  0  0  0  0  0  0  0  0  0  0  0
    2.1388   -4.8497    3.1991 H   0  0  0  0  0  0  0  0  0  0  0  0
    2.1441   -6.1832    2.1371 H   0  0  0  0  0  0  0  0  0  0  0  0
    3.0088   -4.7743    1.7278 H   0  0  0  0  0  0  0  0  0  0  0  0
   -1.8540   -5.6104    0.0529 H   0  0  0  0  0  0  0  0  0  0  0  0
   -1.5423    0.1494    2.3672 H   0  0  0  0  0  0  0  0  0  0  0  0
   -2.9448   -1.5811    2.1593 H   0  0  0  0  0  0  0  0  0  0  0  0
   -2.6627    2.1220    1.7812 H   0  0  0  0  0  0  0  0  0  0  0  0
   -4.4814    1.4207    0.8091 H   0  0  0  0  0  0  0  0  0  0  0  0
  2  1  1  1
  2  3  1  0
  3  4  1  0
  4  5  1  0
  5  6  1  0
  5  7  1  0
  7  8  2  0
  7  9  1  0
  2 10  1  0
 10 11  1  0
 11 12  1  0
 12 13  1  0
 13 14  1  0
 14 15  1  0
 15 16  2  0
 16 17  1  0
 17 18  2  0
 18 19  1  0
 18 20  1  0
 20 21  2  0
 21 22  1  0
 22 23  2  0
 13 24  1  0
 24 25  1  0
 24 26  1  0
 26 27  1  0
 26 11  1  0
 23 14  1  0
 23 17  1  0
  1 28  1  0
  1 29  1  0
  1 30  1  0
  3 31  1  0
  3 32  1  0
  4 33  1  0
  4 34  1  0
  5 35  1  6
  6 36  1  0
  6 37  1  0
  9 38  1  0
 10 39  1  0
 10 40  1  0
 11 41  1  6
 13 42  1  6
 15 43  1  0
 19 44  1  0
 19 45  1  0
 19 46  1  0
 21 47  1  0
 24 48  1  1
 25 49  1  0
 26 50  1  1
 27 51  1  0
M  CHG  2   2   1  19   1
M  END
>  <UniqueID>  (6) 
5

>  <SMILES>  (6) 
C[S@@+](CC[C@H](N)C(=O)O)C[C@H]1O[C@@H](n2cnc3c([NH3+])ncnc32)[C@H](O)[C@@H]1O

>  <Energy>  (6) 
77.40745359225315

>  <Genealogy>  (6) 
C[S+](CC[C@H](N)C(=O)O)C[C@H]1O[C@@H](n2cnc3c([NH3+])ncnc32)[C@H](O)[C@@H]1O (protonated)
C[S@@+](CC[C@H](N)C(=O)O)C[C@H]1O[C@@H](n2cnc3c([NH3+])ncnc32)[C@H](O)[C@@H]1O (chirality)
C[S@@+](CC[C@H](N)C(=O)O)C[C@H]1O[C@@H](n2cnc3c([NH3+])ncnc32)[C@H](O)[C@@H]1O (3D coordinates assigned)
C[S@@+](CC[C@H](N)C(=O)O)C[C@H]1O[C@@H](n2cnc3c([NH3+])ncnc32)[C@H](O)[C@@H]1O (nonaromatic ring conformer: 77.40745359225315 kcal/mol)

$$$$
sah
     RDKit          3D

 50 52  0  0  0  0  0  0  0  0999 V2000
    0.5044    1.7349    2.7979 N   0  0  0  0  0  0  0  0  0  0  0  0
    0.2136    2.9779    2.0727 C   0  0  1  0  0  0  0  0  0  0  0  0
    0.1822    2.7718    0.5426 C   0  0  0  0  0  0  0  0  0  0  0  0
    1.5478    2.3763   -0.0269 C   0  0  0  0  0  0  0  0  0  0  0  0
    1.3922    2.0513   -1.8181 S   0  0  0  0  0  0  0  0  0  0  0  0
    3.1179    1.4883   -2.0906 C   0  0  0  0  0  0  0  0  0  0  0  0
    3.3065   -0.0322   -1.9335 C   0  0  1  0  0  0  0  0  0  0  0  0
    2.9344   -0.4605   -0.6481 O   0  0  0  0  0  0  0  0  0  0  0  0
    2.7173   -1.8477   -0.7584 C   0  0  1  0  0  0  0  0  0  0  0  0
    1.7395   -2.2826    0.2455 N   0  0  0  0  0  0  0  0  0  0  0  0
    1.9471   -3.1934    1.2338 C   0  0  0  0  0  0  0  0  0  0  0  0
    0.8677   -3.3410    2.0436 N   0  0  0  0  0  4  0  0  0  0  0  0
   -0.0398   -2.4876    1.5395 C   0  0  0  0  0  0  0  0  0  0  0  0
   -1.3356   -2.2086    1.9642 C   0  0  0  0  0  0  0  0  0  0  0  0
   -1.8984   -2.8558    3.1147 N   0  0  0  0  0  4  0  0  0  0  0  0
   -2.0488   -1.2805    1.2480 N   0  0  0  0  0  4  0  0  0  0  0  0
   -1.5049   -0.6550    0.1533 C   0  0  0  0  0  0  0  0  0  0  0  0
   -0.2257   -0.9329   -0.2438 N   0  0  0  0  0  4  0  0  0  0  0  0
    0.4803   -1.8515    0.4621 C   0  0  0  0  0  0  0  0  0  0  0  0
    2.2535   -2.1632   -2.1872 C   0  0  2  0  0  0  0  0  0  0  0  0
    3.0014   -3.2364   -2.7047 O   0  0  0  0  0  0  0  0  0  0  0  0
    2.5186   -0.8645   -2.9436 C   0  0  2  0  0  0  0  0  0  0  0  0
    3.2750   -1.0628   -4.1121 O   0  0  0  0  0  0  0  0  0  0  0  0
   -1.1057    3.5282    2.5433 C   0  0  0  0  0  0  0  0  0  0  0  0
   -1.1781    4.7196    2.9460 O   0  0  0  0  0  0  0  0  0  0  0  0
   -2.2615    2.7483    2.5149 O   0  0  0  0  0  0  0  0  0  0  0  0
    0.0097    0.9287    2.3503 H   0  0  0  0  0  0  0  0  0  0  0  0
    1.5310    1.5407    2.7526 H   0  0  0  0  0  0  0  0  0  0  0  0
    1.0061    3.7244    2.3123 H   0  0  0  0  0  0  0  0  0  0  0  0
   -0.1360    3.7217    0.0555 H   0  0  0  0  0  0  0  0  0  0  0  0
   -0.5682    1.9968    0.2822 H   0  0  0  0  0  0  0  0  0  0  0  0
    2.2737    3.2031    0.1368 H   0  0  0  0  0  0  0  0  0  0  0  0
    1.9138    1.4631    0.4805 H   0  0  0  0  0  0  0  0  0  0  0  0
    3.4102    1.7769   -3.1229 H   0  0  0  0  0  0  0  0  0  0  0  0
    3.8067    2.0212   -1.4014 H   0  0  0  0  0  0  0  0  0  0  0  0
    4.3958   -0.2408   -2.0624 H   0  0  0  0  0  0  0  0  0  0  0  0
    3.6903   -2.3580   -0.5598 H   0  0  0  0  0  0  0  0  0  0  0  0
    2.8749   -3.7361    1.3708 H   0  0  0  0  0  0  0  0  0  0  0  0
    0.7739   -3.9697    2.8722 H   0  0  0  0  0  0  0  0  0  0  0  0
   -1.3405   -2.5952    3.9608 H   0  0  0  0  0  0  0  0  0  0  0  0
   -2.8909   -2.5613    3.2577 H   0  0  0  0  0  0  0  0  0  0  0  0
   -1.8696   -3.8937    2.9788 H   0  0  0  0  0  0  0  0  0  0  0  0
   -3.0259   -1.0423    1.5274 H   0  0  0  0  0  0  0  0  0  0  0  0
   -2.0932    0.0672   -0.3991 H   0  0  0  0  0  0  0  0  0  0  0  0
    0.1804   -0.4546   -1.0755 H   0  0  0  0  0  0  0  0  0  0  0  0
    1.1637   -2.4063   -2.2138 H   0  0  0  0  0  0  0  0  0  0  0  0
    2.4955   -3.5947   -3.4774 H   0  0  0  0  0  0  0  0  0  0  0  0
    1.5472   -0.3746   -3.1900 H   0  0  0  0  0  0  0  0  0  0  0  0
    2.6448   -1.3954   -4.8034 H   0  0  0  0  0  0  0  0  0  0  0  0
   -2.2476    1.7920    2.1824 H   0  0  0  0  0  0  0  0  0  0  0  0
  1  2  1  0
  2  3  1  0
  3  4  1  0
  4  5  1  0
  5  6  1  0
  6  7  1  0
  7  8  1  0
  8  9  1  0
  9 10  1  0
 10 11  1  0
 11 12  2  0
 12 13  1  0
 13 14  2  0
 14 15  1  0
 14 16  1  0
 16 17  2  0
 17 18  1  0
 18 19  2  0
  9 20  1  0
 20 21  1  0
 20 22  1  0
 22 23  1  0
  2 24  1  0
 24 25  2  0
 24 26  1  0
 22  7  1  0
 19 10  1  0
 19 13  1  0
  1 27  1  0
  1 28  1  0
  2 29  1  6
  3 30  1  0
  3 31  1  0
  4 32  1  0
  4 33  1  0
  6 34  1  0
  6 35  1  0
  7 36  1  6
  9 37  1  1
 11 38  1  0
 12 39  1  0
 15 40  1  0
 15 41  1  0
 15 42  1  0
 16 43  1  0
 17 44  1  0
 18 45  1  0
 20 46  1  1
 21 47  1  0
 22 48  1  6
 23 49  1  0
 26 50  1  0
M  CHG  4  12   1  15   1  16   1  18   1
M  END
>  <UniqueID>  (7) 
6

>  <SMILES>  (7) 
N[C@@H](CCSC[C@H]1O[C@@H](n2c[nH+]c3c([NH3+])[nH+]c[nH+]c32)[C@H](O)[C@@H]1O)C(=O)O

>  <Energy>  (7) 
84.1876642914094

>  <Genealogy>  (7) 
N[C@@H](CCSC[C@H]1O[C@@H](n2c[nH+]c3c([NH3+])[nH+]c[nH+]c32)[C@H](O)[C@@H]1O)C(=O)O (protonated)
N[C@@H](CCSC[C@H]1O[C@@H](n2c[nH+]c3c([NH3+])[nH+]c[nH+]c32)[C@H](O)[C@@H]1O)C(=O)O (3D coordinates assigned)
N[C@@H](CCSC[C@H]1O[C@@H](n2c[nH+]c3c([NH3+])[nH+]c[nH+]c32)[C@H](O)[C@@H]1O)C(=O)O (nonaromatic ring conformer: 84.1876642914094 kcal/mol)

$$$$
sah
     RDKit          3D

 50 52  0  0  0  0  0  0  0  0999 V2000
    0.1330    4.2456    2.5717 N   0  0  0  0  0  0  0  0  0  0  0  0
    0.1607    4.9372    1.2803 C   0  0  1  0  0  0  0  0  0  0  0  0
    0.8278    4.0562    0.2084 C   0  0  0  0  0  0  0  0  0  0  0  0
    2.3054    3.7976    0.5229 C   0  0  0  0  0  0  0  0  0  0  0  0
    3.0594    2.7555   -0.7754 S   0  0  0  0  0  0  0  0  0  0  0  0
    2.6533    1.1545    0.0119 C   0  0  0  0  0  0  0  0  0  0  0  0
    2.9502   -0.0099   -0.9402 C   0  0  1  0  0  0  0  0  0  0  0  0
    2.8557   -1.2263   -0.2273 O   0  0  0  0  0  0  0  0  0  0  0  0
    2.2111   -2.1434   -1.0754 C   0  0  1  0  0  0  0  0  0  0  0  0
    1.5031   -3.1588   -0.2910 N   0  0  0  0  0  0  0  0  0  0  0  0
    1.4929   -4.4971   -0.5268 C   0  0  0  0  0  0  0  0  0  0  0  0
    0.6981   -5.1738    0.3405 N   0  0  0  0  0  4  0  0  0  0  0  0
    0.1911   -4.2174    1.1365 C   0  0  0  0  0  0  0  0  0  0  0  0
   -0.7121   -4.3193    2.1908 C   0  0  0  0  0  0  0  0  0  0  0  0
   -1.2479   -5.5880    2.5932 N   0  0  0  0  0  4  0  0  0  0  0  0
   -1.0945   -3.1560    2.8075 N   0  0  0  0  0  4  0  0  0  0  0  0
   -0.6013   -1.9398    2.4036 C   0  0  0  0  0  0  0  0  0  0  0  0
    0.2868   -1.8576    1.3670 N   0  0  0  0  0  4  0  0  0  0  0  0
    0.6687   -3.0076    0.7568 C   0  0  0  0  0  0  0  0  0  0  0  0
    1.2552   -1.3638   -1.9611 C   0  0  2  0  0  0  0  0  0  0  0  0
    1.0406   -2.0136   -3.1876 O   0  0  0  0  0  0  0  0  0  0  0  0
    1.9752   -0.0460   -2.1351 C   0  0  2  0  0  0  0  0  0  0  0  0
    2.6891   -0.0235   -3.3459 O   0  0  0  0  0  0  0  0  0  0  0  0
   -1.2318    5.3256    0.8578 C   0  0  0  0  0  0  0  0  0  0  0  0
   -2.0850    4.4398    0.5799 O   0  0  0  0  0  0  0  0  0  0  0  0
   -1.5836    6.6701    0.7919 O   0  0  0  0  0  0  0  0  0  0  0  0
   -0.2798    4.8879    3.2872 H   0  0  0  0  0  0  0  0  0  0  0  0
   -0.4894    3.4068    2.5066 H   0  0  0  0  0  0  0  0  0  0  0  0
    0.7612    5.8678    1.3906 H   0  0  0  0  0  0  0  0  0  0  0  0
    0.7614    4.5670   -0.7778 H   0  0  0  0  0  0  0  0  0  0  0  0
    0.2845    3.0900    0.1288 H   0  0  0  0  0  0  0  0  0  0  0  0
    2.8498    4.7655    0.5417 H   0  0  0  0  0  0  0  0  0  0  0  0
    2.4214    3.3215    1.5199 H   0  0  0  0  0  0  0  0  0  0  0  0
    3.2753    1.0458    0.9261 H   0  0  0  0  0  0  0  0  0  0  0  0
    1.5853    1.1309    0.3119 H   0  0  0  0  0  0  0  0  0  0  0  0
    3.9994    0.0936   -1.2989 H   0  0  0  0  0  0  0  0  0  0  0  0
    2.9876   -2.6386   -1.7046 H   0  0  0  0  0  0  0  0  0  0  0  0
    2.0467   -4.9737   -1.3257 H   0  0  0  0  0  0  0  0  0  0  0  0
    0.5130   -6.2010    0.3662 H   0  0  0  0  0  0  0  0  0  0  0  0
   -1.8461   -5.9656    1.8237 H   0  0  0  0  0  0  0  0  0  0  0  0
   -0.4632   -6.2506    2.7886 H   0  0  0  0  0  0  0  0  0  0  0  0
   -1.8259   -5.4879    3.4579 H   0  0  0  0  0  0  0  0  0  0  0  0
   -1.7778   -3.1819    3.5972 H   0  0  0  0  0  0  0  0  0  0  0  0
   -0.9228   -1.0362    2.9065 H   0  0  0  0  0  0  0  0  0  0  0  0
    0.6455   -0.9292    1.0588 H   0  0  0  0  0  0  0  0  0  0  0  0
    0.2856   -1.1835   -1.4401 H   0  0  0  0  0  0  0  0  0  0  0  0
    0.4347   -2.7765   -2.9981 H   0  0  0  0  0  0  0  0  0  0  0  0
    1.2321    0.7865   -2.1182 H   0  0  0  0  0  0  0  0  0  0  0  0
    2.9833    0.9147   -3.4815 H   0  0  0  0  0  0  0  0  0  0  0  0
   -2.5174    6.9498    0.5170 H   0  0  0  0  0  0  0  0  0  0  0  0
  1  2  1  0
  2  3  1  0
  3  4  1  0
  4  5  1  0
  5  6  1  0
  6  7  1  0
  7  8  1  0
  8  9  1  0
  9 10  1  0
 10 11  1  0
 11 12  2  0
 12 13  1  0
 13 14  2  0
 14 15  1  0
 14 16  1  0
 16 17  2  0
 17 18  1  0
 18 19  2  0
  9 20  1  0
 20 21  1  0
 20 22  1  0
 22 23  1  0
  2 24  1  0
 24 25  2  0
 24 26  1  0
 22  7  1  0
 19 10  1  0
 19 13  1  0
  1 27  1  0
  1 28  1  0
  2 29  1  1
  3 30  1  0
  3 31  1  0
  4 32  1  0
  4 33  1  0
  6 34  1  0
  6 35  1  0
  7 36  1  6
  9 37  1  6
 11 38  1  0
 12 39  1  0
 15 40  1  0
 15 41  1  0
 15 42  1  0
 16 43  1  0
 17 44  1  0
 18 45  1  0
 20 46  1  1
 21 47  1  0
 22 48  1  6
 23 49  1  0
 26 50  1  0
M  CHG  4  12   1  15   1  16   1  18   1
M  END
>  <UniqueID>  (8) 
7

>  <SMILES>  (8) 
N[C@@H](CCSC[C@H]1O[C@@H](n2c[nH+]c3c([NH3+])[nH+]c[nH+]c32)[C@H](O)[C@@H]1O)C(=O)O

>  <Energy>  (8) 
84.34250565364464

>  <Genealogy>  (8) 
N[C@@H](CCSC[C@H]1O[C@@H](n2c[nH+]c3c([NH3+])[nH+]c[nH+]c32)[C@H](O)[C@@H]1O)C(=O)O (protonated)
N[C@@H](CCSC[C@H]1O[C@@H](n2c[nH+]c3c([NH3+])[nH+]c[nH+]c32)[C@H](O)[C@@H]1O)C(=O)O (3D coordinates assigned)
N[C@@H](CCSC[C@H]1O[C@@H](n2c[nH+]c3c([NH3+])[nH+]c[nH+]c32)[C@H](O)[C@@H]1O)C(=O)O (nonaromatic ring conformer: 84.34250565364464 kcal/mol)

$$$$
sah
     RDKit          3D

 50 52  0  0  0  0  0  0  0  0999 V2000
    0.1211    6.0809    1.3760 N   0  0  0  0  0  0  0  0  0  0  0  0
    0.0800    5.0635    0.3241 C   0  0  1  0  0  0  0  0  0  0  0  0
    1.4988    4.5224    0.0652 C   0  0  0  0  0  0  0  0  0  0  0  0
    1.5570    3.6245   -1.1767 C   0  0  0  0  0  0  0  0  0  0  0  0
    3.2303    2.9180   -1.3810 S   0  0  0  0  0  0  0  0  0  0  0  0
    3.0415    1.5411   -0.1843 C   0  0  0  0  0  0  0  0  0  0  0  0
    3.0501    0.1801   -0.8928 C   0  0  1  0  0  0  0  0  0  0  0  0
    3.1449   -0.8451    0.0716 O   0  0  0  0  0  0  0  0  0  0  0  0
    2.3175   -1.9137   -0.3432 C   0  0  1  0  0  0  0  0  0  0  0  0
    1.2914   -2.1718    0.6723 N   0  0  0  0  0  0  0  0  0  0  0  0
    0.7234   -1.2818    1.5299 C   0  0  0  0  0  0  0  0  0  0  0  0
   -0.2727   -1.8330    2.2692 N   0  0  0  0  0  4  0  0  0  0  0  0
   -0.3355   -3.1045    1.8390 C   0  0  0  0  0  0  0  0  0  0  0  0
   -1.2040   -4.1299    2.2033 C   0  0  0  0  0  0  0  0  0  0  0  0
   -2.2058   -3.9344    3.2116 N   0  0  0  0  0  4  0  0  0  0  0  0
   -1.0697   -5.3300    1.5537 N   0  0  0  0  0  4  0  0  0  0  0  0
   -0.1236   -5.5089    0.5742 C   0  0  0  0  0  0  0  0  0  0  0  0
    0.7184   -4.4890    0.2247 N   0  0  0  0  0  4  0  0  0  0  0  0
    0.5975   -3.3065    0.8783 C   0  0  0  0  0  0  0  0  0  0  0  0
    1.6647   -1.5631   -1.6816 C   0  0  2  0  0  0  0  0  0  0  0  0
    2.3797   -2.1558   -2.7376 O   0  0  0  0  0  0  0  0  0  0  0  0
    1.7963   -0.0645   -1.7267 C   0  0  2  0  0  0  0  0  0  0  0  0
    1.9562    0.3973   -3.0457 O   0  0  0  0  0  0  0  0  0  0  0  0
   -0.8779    3.9591    0.6958 C   0  0  0  0  0  0  0  0  0  0  0  0
   -0.6272    3.1969    1.6687 O   0  0  0  0  0  0  0  0  0  0  0  0
   -2.0512    3.7885   -0.0331 O   0  0  0  0  0  0  0  0  0  0  0  0
   -0.8415    6.4717    1.5040 H   0  0  0  0  0  0  0  0  0  0  0  0
    0.4008    5.6356    2.2814 H   0  0  0  0  0  0  0  0  0  0  0  0
   -0.2815    5.5498   -0.6096 H   0  0  0  0  0  0  0  0  0  0  0  0
    2.1893    5.3803   -0.0911 H   0  0  0  0  0  0  0  0  0  0  0  0
    1.8563    3.9665    0.9588 H   0  0  0  0  0  0  0  0  0  0  0  0
    1.3285    4.2329   -2.0770 H   0  0  0  0  0  0  0  0  0  0  0  0
    0.8035    2.8119   -1.1203 H   0  0  0  0  0  0  0  0  0  0  0  0
    2.1296    1.6426    0.4405 H   0  0  0  0  0  0  0  0  0  0  0  0
    3.9112    1.5859    0.5049 H   0  0  0  0  0  0  0  0  0  0  0  0
    3.9527    0.1206   -1.5434 H   0  0  0  0  0  0  0  0  0  0  0  0
    2.9548   -2.8192   -0.4470 H   0  0  0  0  0  0  0  0  0  0  0  0
    1.0150   -0.2430    1.6065 H   0  0  0  0  0  0  0  0  0  0  0  0
   -0.8701   -1.3632    2.9849 H   0  0  0  0  0  0  0  0  0  0  0  0
   -2.7521   -4.8127    3.3669 H   0  0  0  0  0  0  0  0  0  0  0  0
   -1.7444   -3.6592    4.1089 H   0  0  0  0  0  0  0  0  0  0  0  0
   -2.8597   -3.1771    2.9050 H   0  0  0  0  0  0  0  0  0  0  0  0
   -1.6991   -6.1285    1.7931 H   0  0  0  0  0  0  0  0  0  0  0  0
   -0.0463   -6.4645    0.0705 H   0  0  0  0  0  0  0  0  0  0  0  0
    1.4267   -4.6266   -0.5299 H   0  0  0  0  0  0  0  0  0  0  0  0
    0.5895   -1.8600   -1.7281 H   0  0  0  0  0  0  0  0  0  0  0  0
    2.0674   -3.0959   -2.7988 H   0  0  0  0  0  0  0  0  0  0  0  0
    0.8976    0.3828   -1.2350 H   0  0  0  0  0  0  0  0  0  0  0  0
    1.3979    1.2120   -3.1398 H   0  0  0  0  0  0  0  0  0  0  0  0
   -2.7069    3.0528    0.2022 H   0  0  0  0  0  0  0  0  0  0  0  0
  1  2  1  0
  2  3  1  0
  3  4  1  0
  4  5  1  0
  5  6  1  0
  6  7  1  0
  7  8  1  0
  8  9  1  0
  9 10  1  0
 10 11  1  0
 11 12  2  0
 12 13  1  0
 13 14  2  0
 14 15  1  0
 14 16  1  0
 16 17  2  0
 17 18  1  0
 18 19  2  0
  9 20  1  0
 20 21  1  0
 20 22  1  0
 22 23  1  0
  2 24  1  0
 24 25  2  0
 24 26  1  0
 22  7  1  0
 19 10  1  0
 19 13  1  0
  1 27  1  0
  1 28  1  0
  2 29  1  6
  3 30  1  0
  3 31  1  0
  4 32  1  0
  4 33  1  0
  6 34  1  0
  6 35  1  0
  7 36  1  6
  9 37  1  6
 11 38  1  0
 12 39  1  0
 15 40  1  0
 15 41  1  0
 15 42  1  0
 16 43  1  0
 17 44  1  0
 18 45  1  0
 20 46  1  1
 21 47  1  0
 22 48  1  1
 23 49  1  0
 26 50  1  0
M  CHG  4  12   1  15   1  16   1  18   1
M  END
>  <UniqueID>  (9) 
8

>  <SMILES>  (9) 
N[C@@H](CCSC[C@H]1O[C@@H](n2c[nH+]c3c([NH3+])[nH+]c[nH+]c32)[C@H](O)[C@@H]1O)C(=O)O

>  <Energy>  (9) 
85.59039960282199

>  <Genealogy>  (9) 
N[C@@H](CCSC[C@H]1O[C@@H](n2c[nH+]c3c([NH3+])[nH+]c[nH+]c32)[C@H](O)[C@@H]1O)C(=O)O (protonated)
N[C@@H](CCSC[C@H]1O[C@@H](n2c[nH+]c3c([NH3+])[nH+]c[nH+]c32)[C@H](O)[C@@H]1O)C(=O)O (3D coordinates assigned)
N[C@@H](CCSC[C@H]1O[C@@H](n2c[nH+]c3c([NH3+])[nH+]c[nH+]c32)[C@H](O)[C@@H]1O)C(=O)O (nonaromatic ring conformer: 85.59039960282199 kcal/mol)

$$$$
sah
     RDKit          3D

 50 52  0  0  0  0  0  0  0  0999 V2000
    2.3839    5.8349   -0.0967 N   0  0  0  0  0  0  0  0  0  0  0  0
    1.2531    5.7838   -1.0335 C   0  0  1  0  0  0  0  0  0  0  0  0
    0.8862    4.3335   -1.4161 C   0  0  0  0  0  0  0  0  0  0  0  0
    0.4124    3.4650   -0.2406 C   0  0  0  0  0  0  0  0  0  0  0  0
   -0.2537    1.8736   -0.8506 S   0  0  0  0  0  0  0  0  0  0  0  0
    1.3314    0.9599   -0.9207 C   0  0  0  0  0  0  0  0  0  0  0  0
    1.6600    0.3192    0.4336 C   0  0  1  0  0  0  0  0  0  0  0  0
    0.6272   -0.5531    0.8253 O   0  0  0  0  0  0  0  0  0  0  0  0
    1.2073   -1.4732    1.7221 C   0  0  1  0  0  0  0  0  0  0  0  0
    0.5613   -2.7826    1.5874 N   0  0  0  0  0  0  0  0  0  0  0  0
    0.1366   -3.5810    2.6022 C   0  0  0  0  0  0  0  0  0  0  0  0
   -0.3996   -4.7461    2.1586 N   0  0  0  0  0  4  0  0  0  0  0  0
   -0.2959   -4.6682    0.8208 C   0  0  0  0  0  0  0  0  0  0  0  0
   -0.6734   -5.5822   -0.1595 C   0  0  0  0  0  0  0  0  0  0  0  0
   -1.2781   -6.8371    0.1846 N   0  0  0  0  0  4  0  0  0  0  0  0
   -0.4189   -5.2484   -1.4653 N   0  0  0  0  0  4  0  0  0  0  0  0
    0.1779   -4.0556   -1.7923 C   0  0  0  0  0  0  0  0  0  0  0  0
    0.5372   -3.1656   -0.8172 N   0  0  0  0  0  4  0  0  0  0  0  0
    0.2858   -3.4940    0.4756 C   0  0  0  0  0  0  0  0  0  0  0  0
    2.7155   -1.5632    1.4366 C   0  0  2  0  0  0  0  0  0  0  0  0
    3.4747   -1.3498    2.6049 O   0  0  0  0  0  0  0  0  0  0  0  0
    2.9481   -0.4937    0.3783 C   0  0  2  0  0  0  0  0  0  0  0  0
    4.0628    0.3177    0.6511 O   0  0  0  0  0  0  0  0  0  0  0  0
    0.0507    6.5690   -0.5443 C   0  0  0  0  0  0  0  0  0  0  0  0
   -0.6496    7.1959   -1.3852 O   0  0  0  0  0  0  0  0  0  0  0  0
   -0.3418    6.5815    0.7958 O   0  0  0  0  0  0  0  0  0  0  0  0
    2.6148    6.8373    0.0959 H   0  0  0  0  0  0  0  0  0  0  0  0
    2.1314    5.3902    0.8138 H   0  0  0  0  0  0  0  0  0  0  0  0
    1.5977    6.2705   -1.9761 H   0  0  0  0  0  0  0  0  0  0  0  0
    0.0861    4.3638   -2.1880 H   0  0  0  0  0  0  0  0  0  0  0  0
    1.7753    3.8590   -1.8858 H   0  0  0  0  0  0  0  0  0  0  0  0
    1.2407    3.2910    0.4775 H   0  0  0  0  0  0  0  0  0  0  0  0
   -0.4126    3.9733    0.2987 H   0  0  0  0  0  0  0  0  0  0  0  0
    2.1596    1.6271   -1.2377 H   0  0  0  0  0  0  0  0  0  0  0  0
    1.2245    0.1669   -1.6902 H   0  0  0  0  0  0  0  0  0  0  0  0
    1.7580    1.1192    1.2026 H   0  0  0  0  0  0  0  0  0  0  0  0
    1.0316   -1.0925    2.7548 H   0  0  0  0  0  0  0  0  0  0  0  0
    0.2185   -3.3210    3.6508 H   0  0  0  0  0  0  0  0  0  0  0  0
   -0.7932   -5.5243    2.7314 H   0  0  0  0  0  0  0  0  0  0  0  0
   -2.1074   -6.6650    0.7985 H   0  0  0  0  0  0  0  0  0  0  0  0
   -1.5953   -7.3449   -0.6725 H   0  0  0  0  0  0  0  0  0  0  0  0
   -0.5801   -7.4255    0.6920 H   0  0  0  0  0  0  0  0  0  0  0  0
   -0.6765   -5.9075   -2.2344 H   0  0  0  0  0  0  0  0  0  0  0  0
    0.3697   -3.8189   -2.8321 H   0  0  0  0  0  0  0  0  0  0  0  0
    0.9960   -2.2658   -1.0744 H   0  0  0  0  0  0  0  0  0  0  0  0
    2.9887   -2.5582    1.0189 H   0  0  0  0  0  0  0  0  0  0  0  0
    3.2493   -0.4479    2.9623 H   0  0  0  0  0  0  0  0  0  0  0  0
    3.0619   -0.9781   -0.6210 H   0  0  0  0  0  0  0  0  0  0  0  0
    4.8653   -0.2495    0.5066 H   0  0  0  0  0  0  0  0  0  0  0  0
    0.1503    6.0680    1.5166 H   0  0  0  0  0  0  0  0  0  0  0  0
  1  2  1  0
  2  3  1  0
  3  4  1  0
  4  5  1  0
  5  6  1  0
  6  7  1  0
  7  8  1  0
  8  9  1  0
  9 10  1  0
 10 11  1  0
 11 12  2  0
 12 13  1  0
 13 14  2  0
 14 15  1  0
 14 16  1  0
 16 17  2  0
 17 18  1  0
 18 19  2  0
  9 20  1  0
 20 21  1  0
 20 22  1  0
 22 23  1  0
  2 24  1  0
 24 25  2  0
 24 26  1  0
 22  7  1  0
 19 10  1  0
 19 13  1  0
  1 27  1  0
  1 28  1  0
  2 29  1  6
  3 30  1  0
  3 31  1  0
  4 32  1  0
  4 33  1  0
  6 34  1  0
  6 35  1  0
  7 36  1  1
  9 37  1  1
 11 38  1  0
 12 39  1  0
 15 40  1  0
 15 41  1  0
 15 42  1  0
 16 43  1  0
 17 44  1  0
 18 45  1  0
 20 46  1  6
 21 47  1  0
 22 48  1  6
 23 49  1  0
 26 50  1  0
M  CHG  4  12   1  15   1  16   1  18   1
M  END
>  <UniqueID>  (10) 
9

>  <SMILES>  (10) 
N[C@@H](CCSC[C@H]1O[C@@H](n2c[nH+]c3c([NH3+])[nH+]c[nH+]c32)[C@H](O)[C@@H]1O)C(=O)O

>  <Energy>  (10) 
90.15811616792787

>  <Genealogy>  (10) 
N[C@@H](CCSC[C@H]1O[C@@H](n2c[nH+]c3c([NH3+])[nH+]c[nH+]c32)[C@H](O)[C@@H]1O)C(=O)O (protonated)
N[C@@H](CCSC[C@H]1O[C@@H](n2c[nH+]c3c([NH3+])[nH+]c[nH+]c32)[C@H](O)[C@@H]1O)C(=O)O (3D coordinates assigned)
N[C@@H](CCSC[C@H]1O[C@@H](n2c[nH+]c3c([NH3+])[nH+]c[nH+]c32)[C@H](O)[C@@H]1O)C(=O)O (nonaromatic ring conformer: 90.15811616792787 kcal/mol)

$$$$
sah
     RDKit          3D

 50 52  0  0  0  0  0  0  0  0999 V2000
   -0.6097    4.6549   -2.3888 N   0  0  0  0  0  0  0  0  0  0  0  0
   -0.0460    3.8042   -1.3401 C   0  0  1  0  0  0  0  0  0  0  0  0
    1.2793    4.4129   -0.8295 C   0  0  0  0  0  0  0  0  0  0  0  0
    2.0286    3.5104    0.1604 C   0  0  0  0  0  0  0  0  0  0  0  0
    2.7628    2.0613   -0.6905 S   0  0  0  0  0  0  0  0  0  0  0  0
    1.6789    0.7879    0.0522 C   0  0  0  0  0  0  0  0  0  0  0  0
    2.1882    0.3519    1.4349 C   0  0  1  0  0  0  0  0  0  0  0  0
    1.2087   -0.4526    2.0612 O   0  0  0  0  0  0  0  0  0  0  0  0
    1.7207   -1.7608    2.1737 C   0  0  1  0  0  0  0  0  0  0  0  0
    1.2729   -2.5871    1.0313 N   0  0  0  0  0  0  0  0  0  0  0  0
    1.8334   -3.7503    0.5892 C   0  0  0  0  0  0  0  0  0  0  0  0
    1.1219   -4.3392   -0.4020 N   0  0  0  0  0  4  0  0  0  0  0  0
    0.0569   -3.5419   -0.5608 C   0  0  0  0  0  0  0  0  0  0  0  0
   -1.0503   -3.7012   -1.3898 C   0  0  0  0  0  0  0  0  0  0  0  0
   -1.1526   -4.8132   -2.2909 N   0  0  0  0  0  4  0  0  0  0  0  0
   -2.0596   -2.7824   -1.2775 N   0  0  0  0  0  4  0  0  0  0  0  0
   -1.9854   -1.7523   -0.3749 C   0  0  0  0  0  0  0  0  0  0  0  0
   -0.8947   -1.6138    0.4383 N   0  0  0  0  0  4  0  0  0  0  0  0
    0.1270   -2.5043    0.3110 C   0  0  0  0  0  0  0  0  0  0  0  0
    3.2460   -1.6231    2.2490 C   0  0  2  0  0  0  0  0  0  0  0  0
    3.6636   -1.3918    3.5760 O   0  0  0  0  0  0  0  0  0  0  0  0
    3.5058   -0.4288    1.3580 C   0  0  2  0  0  0  0  0  0  0  0  0
    4.5822    0.3499    1.8144 O   0  0  0  0  0  0  0  0  0  0  0  0
   -1.0499    3.6609   -0.2272 C   0  0  0  0  0  0  0  0  0  0  0  0
   -1.3609    4.6555    0.4825 O   0  0  0  0  0  0  0  0  0  0  0  0
   -1.6667    2.4333   -0.0054 O   0  0  0  0  0  0  0  0  0  0  0  0
   -1.4752    4.1957   -2.7563 H   0  0  0  0  0  0  0  0  0  0  0  0
    0.0613    4.6799   -3.1910 H   0  0  0  0  0  0  0  0  0  0  0  0
    0.1585    2.7984   -1.7714 H   0  0  0  0  0  0  0  0  0  0  0  0
    1.9495    4.6212   -1.6919 H   0  0  0  0  0  0  0  0  0  0  0  0
    1.0726    5.3896   -0.3393 H   0  0  0  0  0  0  0  0  0  0  0  0
    1.3694    3.2231    1.0059 H   0  0  0  0  0  0  0  0  0  0  0  0
    2.8679    4.0934    0.5947 H   0  0  0  0  0  0  0  0  0  0  0  0
    1.6429   -0.0865   -0.6316 H   0  0  0  0  0  0  0  0  0  0  0  0
    0.6418    1.1696    0.1362 H   0  0  0  0  0  0  0  0  0  0  0  0
    2.3260    1.2554    2.0682 H   0  0  0  0  0  0  0  0  0  0  0  0
    1.3356   -2.2216    3.1090 H   0  0  0  0  0  0  0  0  0  0  0  0
    2.7227   -4.2006    1.0070 H   0  0  0  0  0  0  0  0  0  0  0  0
    1.3311   -5.2407   -0.8854 H   0  0  0  0  0  0  0  0  0  0  0  0
   -1.2596   -5.6930   -1.7367 H   0  0  0  0  0  0  0  0  0  0  0  0
   -1.9780   -4.7025   -2.9225 H   0  0  0  0  0  0  0  0  0  0  0  0
   -0.2884   -4.8681   -2.8764 H   0  0  0  0  0  0  0  0  0  0  0  0
   -2.9140   -2.8668   -1.8723 H   0  0  0  0  0  0  0  0  0  0  0  0
   -2.8066   -1.0508   -0.2935 H   0  0  0  0  0  0  0  0  0  0  0  0
   -0.8913   -0.8478    1.1430 H   0  0  0  0  0  0  0  0  0  0  0  0
    3.7969   -2.5060    1.8727 H   0  0  0  0  0  0  0  0  0  0  0  0
    3.1759   -0.6001    3.9258 H   0  0  0  0  0  0  0  0  0  0  0  0
    3.7013   -0.7832    0.3175 H   0  0  0  0  0  0  0  0  0  0  0  0
    5.4076   -0.1545    1.5922 H   0  0  0  0  0  0  0  0  0  0  0  0
   -2.3494    2.3203    0.7343 H   0  0  0  0  0  0  0  0  0  0  0  0
  1  2  1  0
  2  3  1  0
  3  4  1  0
  4  5  1  0
  5  6  1  0
  6  7  1  0
  7  8  1  0
  8  9  1  0
  9 10  1  0
 10 11  1  0
 11 12  2  0
 12 13  1  0
 13 14  2  0
 14 15  1  0
 14 16  1  0
 16 17  2  0
 17 18  1  0
 18 19  2  0
  9 20  1  0
 20 21  1  0
 20 22  1  0
 22 23  1  0
  2 24  1  0
 24 25  2  0
 24 26  1  0
 22  7  1  0
 19 10  1  0
 19 13  1  0
  1 27  1  0
  1 28  1  0
  2 29  1  6
  3 30  1  0
  3 31  1  0
  4 32  1  0
  4 33  1  0
  6 34  1  0
  6 35  1  0
  7 36  1  1
  9 37  1  1
 11 38  1  0
 12 39  1  0
 15 40  1  0
 15 41  1  0
 15 42  1  0
 16 43  1  0
 17 44  1  0
 18 45  1  0
 20 46  1  6
 21 47  1  0
 22 48  1  6
 23 49  1  0
 26 50  1  0
M  CHG  4  12   1  15   1  16   1  18   1
M  END
>  <UniqueID>  (11) 
10

>  <SMILES>  (11) 
N[C@@H](CCSC[C@H]1O[C@@H](n2c[nH+]c3c([NH3+])[nH+]c[nH+]c32)[C@H](O)[C@@H]1O)C(=O)O

>  <Energy>  (11) 
91.77306229239744

>  <Genealogy>  (11) 
N[C@@H](CCSC[C@H]1O[C@@H](n2c[nH+]c3c([NH3+])[nH+]c[nH+]c32)[C@H](O)[C@@H]1O)C(=O)O (protonated)
N[C@@H](CCSC[C@H]1O[C@@H](n2c[nH+]c3c([NH3+])[nH+]c[nH+]c32)[C@H](O)[C@@H]1O)C(=O)O (3D coordinates assigned)
N[C@@H](CCSC[C@H]1O[C@@H](n2c[nH+]c3c([NH3+])[nH+]c[nH+]c32)[C@H](O)[C@@H]1O)C(=O)O (nonaromatic ring conformer: 91.77306229239744 kcal/mol)

$$$$
