EMPTY MOLECULE DESCRIBING GYPSUM-DL PARAMETERS
     RDKit          2D

  0  0  0  0  0  0  0  0  0  0999 V2000
M  END
>  <source>  (1) 
/Users/jake/Desktop/galene/data/lig/dc_05_analogs.smi

>  <output_folder>  (1) 
data/lig

>  <separate_output_files>  (1) 
False

>  <add_pdb_output>  (1) 
False

>  <add_html_output>  (1) 
False

>  <num_processors>  (1) 
-1

>  <start_time>  (1) 
0

>  <end_time>  (1) 
0

>  <run_time>  (1) 
0

>  <min_ph>  (1) 
-6.0

>  <max_ph>  (1) 
-8.0

>  <pka_precision>  (1) 
1.0

>  <thoroughness>  (1) 
3

>  <max_variants_per_compound>  (1) 
1

>  <second_embed>  (1) 
False

>  <2d_output_only>  (1) 
False

>  <skip_optimize_geometry>  (1) 
False

>  <skip_alternate_ring_conformations>  (1) 
False

>  <skip_adding_hydrogen>  (1) 
False

>  <skip_making_tautomers>  (1) 
False

>  <skip_enumerate_chiral_mol>  (1) 
False

>  <skip_enumerate_double_bonds>  (1) 
False

>  <let_tautomers_change_chirality>  (1) 
False

>  <use_durrant_lab_filters>  (1) 
False

>  <job_manager>  (1) 
multiprocessing

>  <cache_prerun>  (1) 
False

>  <test>  (1) 
False

>  <Parallelizer>  (1) 
<gypsum_dl.Parallelizer.Parallelizer object at 0x8239fee10>

$$$$
untitled_line_1
     RDKit          3D

 26 27  0  0  0  0  0  0  0  0999 V2000
    0.9798   -2.8942    4.5159 O   0  0  0  0  0  0  0  0  0  0  0  0
   -0.2139   -2.5125    3.8865 C   0  0  0  0  0  0  0  0  0  0  0  0
    0.0104   -1.3021    2.9744 C   0  0  0  0  0  0  0  0  0  0  0  0
    0.9735   -1.6269    1.8271 C   0  0  0  0  0  0  0  0  0  0  0  0
    1.1509   -0.4339    0.9364 C   0  0  0  0  0  0  0  0  0  0  0  0
    2.1438    0.5360    1.0373 C   0  0  0  0  0  0  0  0  0  0  0  0
    1.9520    1.5054    0.1135 N   0  0  0  0  0  0  0  0  0  0  0  0
    0.8400    1.1623   -0.5601 C   0  0  0  0  0  0  0  0  0  0  0  0
    0.2304    1.8648   -1.5987 C   0  0  0  0  0  0  0  0  0  0  0  0
   -0.9484    1.3305   -2.1508 C   0  0  0  0  0  0  0  0  0  0  0  0
   -1.4872    0.1221   -1.6554 C   0  0  0  0  0  0  0  0  0  0  0  0
   -0.8514   -0.5643   -0.6047 C   0  0  0  0  0  0  0  0  0  0  0  0
    0.3187   -0.0129   -0.0822 C   0  0  0  0  0  0  0  0  0  0  0  0
    1.1533   -2.2230    5.2266 H   0  0  0  0  0  0  0  0  0  0  0  0
   -0.5953   -3.3671    3.2878 H   0  0  0  0  0  0  0  0  0  0  0  0
   -0.9873   -2.2664    4.6490 H   0  0  0  0  0  0  0  0  0  0  0  0
   -0.9710   -0.9898    2.5547 H   0  0  0  0  0  0  0  0  0  0  0  0
    0.4126   -0.4573    3.5760 H   0  0  0  0  0  0  0  0  0  0  0  0
    1.9630   -1.9257    2.2360 H   0  0  0  0  0  0  0  0  0  0  0  0
    0.5789   -2.4763    1.2287 H   0  0  0  0  0  0  0  0  0  0  0  0
    2.9541    0.5372    1.7547 H   0  0  0  0  0  0  0  0  0  0  0  0
    2.5418    2.3545   -0.0332 H   0  0  0  0  0  0  0  0  0  0  0  0
    0.6473    2.7931   -1.9673 H   0  0  0  0  0  0  0  0  0  0  0  0
   -1.4472    1.8506   -2.9581 H   0  0  0  0  0  0  0  0  0  0  0  0
   -2.3963   -0.2776   -2.0856 H   0  0  0  0  0  0  0  0  0  0  0  0
   -1.2610   -1.4881   -0.2175 H   0  0  0  0  0  0  0  0  0  0  0  0
  1  2  1  0
  2  3  1  0
  3  4  1  0
  4  5  1  0
  5  6  2  0
  6  7  1  0
  7  8  1  0
  8  9  2  0
  9 10  1  0
 10 11  2  0
 11 12  1  0
 12 13  2  0
 13  5  1  0
 13  8  1  0
  1 14  1  0
  2 15  1  0
  2 16  1  0
  3 17  1  0
  3 18  1  0
  4 19  1  0
  4 20  1  0
  6 21  1  0
  7 22  1  0
  9 23  1  0
 10 24  1  0
 11 25  1  0
 12 26  1  0
M  END
>  <UniqueID>  (2) 
1

>  <SMILES>  (2) 
OCCCc1c[nH]c2ccccc12

>  <Energy>  (2) 
53.583011516840905

>  <Genealogy>  (2) 
OCCCc1c[nH]c2ccccc12 (3D coordinates assigned)
OCCCc1c[nH]c2ccccc12 (optimized conformer: 53.583011516840905 kcal/mol)

$$$$
untitled_line_2
     RDKit          3D

 36 38  0  0  0  0  0  0  0  0999 V2000
    2.2393   -2.4379    2.1600 O   0  0  0  0  0  0  0  0  0  0  0  0
    1.4899   -1.4449    2.3668 C   0  0  0  0  0  0  0  0  0  0  0  0
    1.6462   -0.2580    1.5756 N   0  0  0  0  0  0  0  0  0  0  0  0
    2.6966   -0.1519    0.5617 C   0  0  0  0  0  0  0  0  0  0  0  0
    2.6077    1.1713   -0.2074 C   0  0  0  0  0  0  0  0  0  0  0  0
    1.3608    1.2398   -1.0413 C   0  0  0  0  0  0  0  0  0  0  0  0
    0.1827    1.9089   -0.7222 C   0  0  0  0  0  0  0  0  0  0  0  0
   -0.7501    1.7055   -1.6804 N   0  0  0  0  0  0  0  0  0  0  0  0
   -0.1739    0.9084   -2.5969 C   0  0  0  0  0  0  0  0  0  0  0  0
   -0.7484    0.4125   -3.7666 C   0  0  0  0  0  0  0  0  0  0  0  0
    0.0372   -0.4226   -4.5821 C   0  0  0  0  0  0  0  0  0  0  0  0
    1.3633   -0.7411   -4.2136 C   0  0  0  0  0  0  0  0  0  0  0  0
    1.9164   -0.2270   -3.0266 C   0  0  0  0  0  0  0  0  0  0  0  0
    1.1139    0.5999   -2.2402 C   0  0  0  0  0  0  0  0  0  0  0  0
    0.4689   -1.5039    3.4377 C   0  0  0  0  0  0  0  0  0  0  0  0
    0.2628   -0.3741    4.2509 C   0  0  0  0  0  0  0  0  0  0  0  0
   -0.6793   -0.4022    5.2818 C   0  0  0  0  0  0  0  0  0  0  0  0
   -1.4280   -1.5558    5.5140 C   0  0  0  0  0  0  0  0  0  0  0  0
   -1.2389   -2.6838    4.7139 C   0  0  0  0  0  0  0  0  0  0  0  0
   -0.2973   -2.6695    3.6769 C   0  0  0  0  0  0  0  0  0  0  0  0
   -0.1597   -4.2414    2.5830 Br  0  0  0  0  0  0  0  0  0  0  0  0
    0.9757    0.5316    1.7132 H   0  0  0  0  0  0  0  0  0  0  0  0
    2.6182   -1.0036   -0.1488 H   0  0  0  0  0  0  0  0  0  0  0  0
    3.6875   -0.2087    1.0614 H   0  0  0  0  0  0  0  0  0  0  0  0
    2.6346    2.0234    0.5060 H   0  0  0  0  0  0  0  0  0  0  0  0
    3.4922    1.2647   -0.8733 H   0  0  0  0  0  0  0  0  0  0  0  0
    0.0152    2.5035    0.1665 H   0  0  0  0  0  0  0  0  0  0  0  0
   -1.7231    2.0843   -1.6958 H   0  0  0  0  0  0  0  0  0  0  0  0
   -1.7665    0.6594   -4.0387 H   0  0  0  0  0  0  0  0  0  0  0  0
   -0.3780   -0.8247   -5.4970 H   0  0  0  0  0  0  0  0  0  0  0  0
    1.9577   -1.3855   -4.8481 H   0  0  0  0  0  0  0  0  0  0  0  0
    2.9311   -0.4678   -2.7376 H   0  0  0  0  0  0  0  0  0  0  0  0
    0.8463    0.5262    4.1036 H   0  0  0  0  0  0  0  0  0  0  0  0
   -0.8255    0.4710    5.9045 H   0  0  0  0  0  0  0  0  0  0  0  0
   -2.1580   -1.5752    6.3129 H   0  0  0  0  0  0  0  0  0  0  0  0
   -1.8331   -3.5703    4.8959 H   0  0  0  0  0  0  0  0  0  0  0  0
  1  2  2  0
  2  3  1  0
  3  4  1  0
  4  5  1  0
  5  6  1  0
  6  7  2  0
  7  8  1  0
  8  9  1  0
  9 10  2  0
 10 11  1  0
 11 12  2  0
 12 13  1  0
 13 14  2  0
  2 15  1  0
 15 16  2  0
 16 17  1  0
 17 18  2  0
 18 19  1  0
 19 20  2  0
 20 21  1  0
 14  6  1  0
 20 15  1  0
 14  9  1  0
  3 22  1  0
  4 23  1  0
  4 24  1  0
  5 25  1  0
  5 26  1  0
  7 27  1  0
  8 28  1  0
 10 29  1  0
 11 30  1  0
 12 31  1  0
 13 32  1  0
 16 33  1  0
 17 34  1  0
 18 35  1  0
 19 36  1  0
M  END
>  <UniqueID>  (3) 
2

>  <SMILES>  (3) 
O=C(NCCc1c[nH]c2ccccc12)c1ccccc1Br

>  <Energy>  (3) 
71.60666284714797

>  <Genealogy>  (3) 
O=C(NCCc1c[nH]c2ccccc12)c1ccccc1Br (3D coordinates assigned)
O=C(NCCc1c[nH]c2ccccc12)c1ccccc1Br (optimized conformer: 71.60666284714797 kcal/mol)

$$$$
untitled_line_3
     RDKit          3D

 45 47  0  0  0  0  0  0  0  0999 V2000
   -2.3411   -1.7592    1.1109 C   0  0  0  0  0  0  0  0  0  0  0  0
   -2.0852   -0.6220    2.1223 C   0  0  0  0  0  0  0  0  0  0  0  0
   -1.2929   -1.0358    3.3756 C   0  0  0  0  0  0  0  0  0  0  0  0
   -1.8237    0.8155    1.6205 C   0  0  0  0  0  0  0  0  0  0  0  0
   -1.7893    1.0469    0.1355 C   0  0  0  0  0  0  0  0  0  0  0  0
   -2.5319    1.9300   -0.3724 O   0  0  0  0  0  0  0  0  0  0  0  0
   -0.8354    0.3492   -0.6763 N   0  0  0  0  0  0  0  0  0  0  0  0
   -0.6356    0.6521   -2.0923 C   0  0  0  0  0  0  0  0  0  0  0  0
    0.2930    1.8580   -2.2598 C   0  0  0  0  0  0  0  0  0  0  0  0
    1.6679    1.5542   -1.7400 C   0  0  0  0  0  0  0  0  0  0  0  0
    2.1323    1.7734   -0.4459 C   0  0  0  0  0  0  0  0  0  0  0  0
    3.3861    1.2850   -0.3051 N   0  0  0  0  0  0  0  0  0  0  0  0
    3.7132    0.7503   -1.4946 C   0  0  0  0  0  0  0  0  0  0  0  0
    4.9054    0.1116   -1.8354 C   0  0  0  0  0  0  0  0  0  0  0  0
    5.0308   -0.3918   -3.1435 C   0  0  0  0  0  0  0  0  0  0  0  0
    3.9724   -0.2515   -4.0689 C   0  0  0  0  0  0  0  0  0  0  0  0
    2.7780    0.3925   -3.6951 C   0  0  0  0  0  0  0  0  0  0  0  0
    2.6873    0.8892   -2.3944 C   0  0  0  0  0  0  0  0  0  0  0  0
   -3.1776    0.4659    2.2795 C   0  0  0  0  0  0  0  0  0  0  0  0
   -3.4027    1.0506    3.6854 C   0  0  0  0  0  0  0  0  0  0  0  0
   -4.4523    0.3252    1.4172 C   0  0  0  0  0  0  0  0  0  0  0  0
   -3.0693   -2.4734    1.5448 H   0  0  0  0  0  0  0  0  0  0  0  0
   -2.7282   -1.4202    0.1319 H   0  0  0  0  0  0  0  0  0  0  0  0
   -1.3922   -2.3026    0.9155 H   0  0  0  0  0  0  0  0  0  0  0  0
   -1.9390   -1.6626    4.0284 H   0  0  0  0  0  0  0  0  0  0  0  0
   -0.9199   -0.1713    3.9601 H   0  0  0  0  0  0  0  0  0  0  0  0
   -0.4040   -1.6329    3.0766 H   0  0  0  0  0  0  0  0  0  0  0  0
   -1.1112    1.4102    2.2303 H   0  0  0  0  0  0  0  0  0  0  0  0
   -0.1726   -0.3117   -0.2156 H   0  0  0  0  0  0  0  0  0  0  0  0
   -0.1939   -0.2337   -2.5991 H   0  0  0  0  0  0  0  0  0  0  0  0
   -1.6131    0.8580   -2.5797 H   0  0  0  0  0  0  0  0  0  0  0  0
    0.3563    2.1249   -3.3365 H   0  0  0  0  0  0  0  0  0  0  0  0
   -0.1259    2.7354   -1.7210 H   0  0  0  0  0  0  0  0  0  0  0  0
    1.5760    2.2475    0.3522 H   0  0  0  0  0  0  0  0  0  0  0  0
    3.9724    1.3075    0.5586 H   0  0  0  0  0  0  0  0  0  0  0  0
    5.7080    0.0026   -1.1176 H   0  0  0  0  0  0  0  0  0  0  0  0
    5.9422   -0.8921   -3.4414 H   0  0  0  0  0  0  0  0  0  0  0  0
    4.0786   -0.6448   -5.0709 H   0  0  0  0  0  0  0  0  0  0  0  0
    1.9613    0.4998   -4.3984 H   0  0  0  0  0  0  0  0  0  0  0  0
   -4.1225    1.8937    3.6315 H   0  0  0  0  0  0  0  0  0  0  0  0
   -2.4752    1.4515    4.1411 H   0  0  0  0  0  0  0  0  0  0  0  0
   -3.8279    0.2701    4.3498 H   0  0  0  0  0  0  0  0  0  0  0  0
   -4.2577    0.1555    0.3418 H   0  0  0  0  0  0  0  0  0  0  0  0
   -5.0548   -0.5246    1.8003 H   0  0  0  0  0  0  0  0  0  0  0  0
   -5.0623    1.2503    1.4960 H   0  0  0  0  0  0  0  0  0  0  0  0
  1  2  1  0
  2  3  1  0
  2  4  1  0
  4  5  1  0
  5  6  2  0
  5  7  1  0
  7  8  1  0
  8  9  1  0
  9 10  1  0
 10 11  2  0
 11 12  1  0
 12 13  1  0
 13 14  2  0
 14 15  1  0
 15 16  2  0
 16 17  1  0
 17 18  2  0
  4 19  1  0
 19 20  1  0
 19 21  1  0
 19  2  1  0
 18 10  1  0
 18 13  1  0
  1 22  1  0
  1 23  1  0
  1 24  1  0
  3 25  1  0
  3 26  1  0
  3 27  1  0
  4 28  1  0
  7 29  1  0
  8 30  1  0
  8 31  1  0
  9 32  1  0
  9 33  1  0
 11 34  1  0
 12 35  1  0
 14 36  1  0
 15 37  1  0
 16 38  1  0
 17 39  1  0
 20 40  1  0
 20 41  1  0
 20 42  1  0
 21 43  1  0
 21 44  1  0
 21 45  1  0
M  END
>  <UniqueID>  (4) 
3

>  <SMILES>  (4) 
CC1(C)C(C(=O)NCCc2c[nH]c3ccccc23)C1(C)C

>  <Energy>  (4) 
350.8333035728028

>  <Genealogy>  (4) 
CC1(C)C(C(=O)NCCc2c[nH]c3ccccc23)C1(C)C (3D coordinates assigned)
CC1(C)C(C(=O)NCCc2c[nH]c3ccccc23)C1(C)C (nonaromatic ring conformer: 350.8333035728028 kcal/mol)

$$$$
untitled_line_4
     RDKit          3D

 25 26  0  0  0  0  0  0  0  0999 V2000
    0.2908   -3.0617    1.3771 C   0  0  0  0  0  0  0  0  0  0  0  0
    1.5566   -2.5917    2.0929 C   0  0  0  0  0  0  0  0  0  0  0  0
    2.2218   -1.4021    1.3884 C   0  0  0  0  0  0  0  0  0  0  0  0
    1.3887   -0.1564    1.4876 C   0  0  0  0  0  0  0  0  0  0  0  0
    1.2958    0.6884    2.5897 C   0  0  0  0  0  0  0  0  0  0  0  0
    0.4076    1.6801    2.3512 N   0  0  0  0  0  0  0  0  0  0  0  0
   -0.0678    1.4635    1.1125 C   0  0  0  0  0  0  0  0  0  0  0  0
   -1.0239    2.2160    0.4316 C   0  0  0  0  0  0  0  0  0  0  0  0
   -1.3923    1.7976   -0.8601 C   0  0  0  0  0  0  0  0  0  0  0  0
   -0.8058    0.6482   -1.4345 C   0  0  0  0  0  0  0  0  0  0  0  0
    0.1557   -0.0928   -0.7236 C   0  0  0  0  0  0  0  0  0  0  0  0
    0.5042    0.3489    0.5536 C   0  0  0  0  0  0  0  0  0  0  0  0
    0.5150   -3.3135    0.3188 H   0  0  0  0  0  0  0  0  0  0  0  0
   -0.4919   -2.2751    1.4113 H   0  0  0  0  0  0  0  0  0  0  0  0
   -0.1041   -3.9688    1.8811 H   0  0  0  0  0  0  0  0  0  0  0  0
    2.2791   -3.4357    2.1202 H   0  0  0  0  0  0  0  0  0  0  0  0
    1.3109   -2.3228    3.1436 H   0  0  0  0  0  0  0  0  0  0  0  0
    3.2046   -1.2080    1.8694 H   0  0  0  0  0  0  0  0  0  0  0  0
    2.4222   -1.6503    0.3242 H   0  0  0  0  0  0  0  0  0  0  0  0
    1.8409    0.5762    3.5179 H   0  0  0  0  0  0  0  0  0  0  0  0
    0.1391    2.4491    3.0047 H   0  0  0  0  0  0  0  0  0  0  0  0
   -1.4715    3.0924    0.8821 H   0  0  0  0  0  0  0  0  0  0  0  0
   -2.1319    2.3589   -1.4160 H   0  0  0  0  0  0  0  0  0  0  0  0
   -1.0993    0.3341   -2.4277 H   0  0  0  0  0  0  0  0  0  0  0  0
    0.6040   -0.9765   -1.1579 H   0  0  0  0  0  0  0  0  0  0  0  0
  1  2  1  0
  2  3  1  0
  3  4  1  0
  4  5  2  0
  5  6  1  0
  6  7  1  0
  7  8  2  0
  8  9  1  0
  9 10  2  0
 10 11  1  0
 11 12  2  0
 12  4  1  0
 12  7  1  0
  1 13  1  0
  1 14  1  0
  1 15  1  0
  2 16  1  0
  2 17  1  0
  3 18  1  0
  3 19  1  0
  5 20  1  0
  6 21  1  0
  8 22  1  0
  9 23  1  0
 10 24  1  0
 11 25  1  0
M  END
>  <UniqueID>  (5) 
4

>  <SMILES>  (5) 
CCCc1c[nH]c2ccccc12

>  <Energy>  (5) 
52.37520677988608

>  <Genealogy>  (5) 
CCCc1c[nH]c2ccccc12 (3D coordinates assigned)
CCCc1c[nH]c2ccccc12 (optimized conformer: 52.37520677988608 kcal/mol)

$$$$
untitled_line_5
     RDKit          3D

 42 44  0  0  0  0  0  0  0  0999 V2000
    0.2779   -1.0624   -1.3238 O   0  0  0  0  0  0  0  0  0  0  0  0
    0.8540   -1.0712   -0.2020 C   0  0  0  0  0  0  0  0  0  0  0  0
    2.3471   -1.1788   -0.1401 C   0  0  0  0  0  0  0  0  0  0  0  0
    2.9768    0.2099   -0.0070 C   0  0  0  0  0  0  0  0  0  0  0  0
    4.4767    0.1059    0.0625 C   0  0  0  0  0  0  0  0  0  0  0  0
    5.1188   -0.0620    1.3009 C   0  0  0  0  0  0  0  0  0  0  0  0
    6.5099   -0.1911    1.3609 C   0  0  0  0  0  0  0  0  0  0  0  0
    7.2674   -0.1634    0.1867 C   0  0  0  0  0  0  0  0  0  0  0  0
    6.6346   -0.0106   -1.0501 C   0  0  0  0  0  0  0  0  0  0  0  0
    5.2437    0.1190   -1.1146 C   0  0  0  0  0  0  0  0  0  0  0  0
    0.0924   -0.9377    1.0065 N   0  0  0  0  0  0  0  0  0  0  0  0
   -1.3570   -0.7550    1.0046 C   0  0  0  0  0  0  0  0  0  0  0  0
   -1.7134    0.6772    0.6003 C   0  0  0  0  0  0  0  0  0  0  0  0
   -3.2003    0.8663    0.5892 C   0  0  0  0  0  0  0  0  0  0  0  0
   -3.9839    1.3507    1.6321 C   0  0  0  0  0  0  0  0  0  0  0  0
   -5.2932    1.3163    1.2934 N   0  0  0  0  0  0  0  0  0  0  0  0
   -5.3427    0.8028    0.0517 C   0  0  0  0  0  0  0  0  0  0  0  0
   -6.4799    0.5547   -0.7159 C   0  0  0  0  0  0  0  0  0  0  0  0
   -6.3013   -0.0111   -1.9918 C   0  0  0  0  0  0  0  0  0  0  0  0
   -5.0054   -0.3162   -2.4647 C   0  0  0  0  0  0  0  0  0  0  0  0
   -3.8760   -0.0568   -1.6671 C   0  0  0  0  0  0  0  0  0  0  0  0
   -4.0849    0.5099   -0.4095 C   0  0  0  0  0  0  0  0  0  0  0  0
    2.7223   -1.6752   -1.0621 H   0  0  0  0  0  0  0  0  0  0  0  0
    2.6333   -1.8092    0.7299 H   0  0  0  0  0  0  0  0  0  0  0  0
    2.5924    0.7109    0.9092 H   0  0  0  0  0  0  0  0  0  0  0  0
    2.6828    0.8396   -0.8758 H   0  0  0  0  0  0  0  0  0  0  0  0
    4.5424   -0.0943    2.2174 H   0  0  0  0  0  0  0  0  0  0  0  0
    7.0005   -0.3160    2.3176 H   0  0  0  0  0  0  0  0  0  0  0  0
    8.3439   -0.2649    0.2348 H   0  0  0  0  0  0  0  0  0  0  0  0
    7.2217    0.0041   -1.9593 H   0  0  0  0  0  0  0  0  0  0  0  0
    4.7647    0.2276   -2.0799 H   0  0  0  0  0  0  0  0  0  0  0  0
    0.5839   -1.0108    1.9259 H   0  0  0  0  0  0  0  0  0  0  0  0
   -1.8265   -1.4867    0.3110 H   0  0  0  0  0  0  0  0  0  0  0  0
   -1.7491   -0.9522    2.0266 H   0  0  0  0  0  0  0  0  0  0  0  0
   -1.2546    1.3902    1.3192 H   0  0  0  0  0  0  0  0  0  0  0  0
   -1.3093    0.9041   -0.4090 H   0  0  0  0  0  0  0  0  0  0  0  0
   -3.6165    1.6982    2.5889 H   0  0  0  0  0  0  0  0  0  0  0  0
   -6.0999    1.6151    1.8853 H   0  0  0  0  0  0  0  0  0  0  0  0
   -7.4691    0.7861   -0.3426 H   0  0  0  0  0  0  0  0  0  0  0  0
   -7.1628   -0.2168   -2.6136 H   0  0  0  0  0  0  0  0  0  0  0  0
   -4.8805   -0.7542   -3.4464 H   0  0  0  0  0  0  0  0  0  0  0  0
   -2.8806   -0.2920   -2.0210 H   0  0  0  0  0  0  0  0  0  0  0  0
  1  2  2  0
  2  3  1  0
  3  4  1  0
  4  5  1  0
  5  6  2  0
  6  7  1  0
  7  8  2  0
  8  9  1  0
  9 10  2  0
  2 11  1  0
 11 12  1  0
 12 13  1  0
 13 14  1  0
 14 15  2  0
 15 16  1  0
 16 17  1  0
 17 18  2  0
 18 19  1  0
 19 20  2  0
 20 21  1  0
 21 22  2  0
 10  5  1  0
 22 14  1  0
 22 17  1  0
  3 23  1  0
  3 24  1  0
  4 25  1  0
  4 26  1  0
  6 27  1  0
  7 28  1  0
  8 29  1  0
  9 30  1  0
 10 31  1  0
 11 32  1  0
 12 33  1  0
 12 34  1  0
 13 35  1  0
 13 36  1  0
 15 37  1  0
 16 38  1  0
 18 39  1  0
 19 40  1  0
 20 41  1  0
 21 42  1  0
M  END
>  <UniqueID>  (6) 
5

>  <SMILES>  (6) 
O=C(CCc1ccccc1)NCCc1c[nH]c2ccccc12

>  <Energy>  (6) 
67.09217110880574

>  <Genealogy>  (6) 
O=C(CCc1ccccc1)NCCc1c[nH]c2ccccc12 (3D coordinates assigned)
O=C(CCc1ccccc1)NCCc1c[nH]c2ccccc12 (optimized conformer: 67.09217110880574 kcal/mol)

$$$$
untitled_line_6
     RDKit          3D

 37 39  0  0  0  0  0  0  0  0999 V2000
   -0.3740    1.9999   -2.7391 O   0  0  0  0  0  0  0  0  0  0  0  0
   -0.9564    1.8472   -1.6304 C   0  0  0  0  0  0  0  0  0  0  0  0
   -1.3954    0.5370   -1.2333 N   0  0  0  0  0  0  0  0  0  0  0  0
   -1.2075   -0.6438   -2.0765 C   0  0  0  0  0  0  0  0  0  0  0  0
    0.2583   -1.0921   -2.0853 C   0  0  0  0  0  0  0  0  0  0  0  0
    0.7412   -1.4066   -0.6995 C   0  0  0  0  0  0  0  0  0  0  0  0
    1.4132   -0.5413    0.1590 C   0  0  0  0  0  0  0  0  0  0  0  0
    1.6182   -1.1317    1.3585 N   0  0  0  0  0  0  0  0  0  0  0  0
    1.0704   -2.3562    1.2684 C   0  0  0  0  0  0  0  0  0  0  0  0
    1.0116   -3.3310    2.2635 C   0  0  0  0  0  0  0  0  0  0  0  0
    0.3649   -4.5430    1.9593 C   0  0  0  0  0  0  0  0  0  0  0  0
   -0.2057   -4.7494    0.6835 C   0  0  0  0  0  0  0  0  0  0  0  0
   -0.1334   -3.7466   -0.3006 C   0  0  0  0  0  0  0  0  0  0  0  0
    0.5195   -2.5586    0.0288 C   0  0  0  0  0  0  0  0  0  0  0  0
   -1.1554    3.0233   -0.7501 C   0  0  0  0  0  0  0  0  0  0  0  0
   -2.2157    3.0733    0.1744 C   0  0  0  0  0  0  0  0  0  0  0  0
   -2.3875    4.1923    0.9952 C   0  0  0  0  0  0  0  0  0  0  0  0
   -1.5082    5.2781    0.9004 C   0  0  0  0  0  0  0  0  0  0  0  0
   -1.6697    6.3968    1.7145 O   0  0  0  0  0  0  0  0  0  0  0  0
   -0.4597    5.2412   -0.0225 C   0  0  0  0  0  0  0  0  0  0  0  0
   -0.2853    4.1248   -0.8458 C   0  0  0  0  0  0  0  0  0  0  0  0
   -1.8271    0.3920   -0.2941 H   0  0  0  0  0  0  0  0  0  0  0  0
   -1.5410   -0.4225   -3.1133 H   0  0  0  0  0  0  0  0  0  0  0  0
   -1.8406   -1.4737   -1.6929 H   0  0  0  0  0  0  0  0  0  0  0  0
    0.8974   -0.3011   -2.5315 H   0  0  0  0  0  0  0  0  0  0  0  0
    0.3586   -1.9964   -2.7227 H   0  0  0  0  0  0  0  0  0  0  0  0
    1.7191    0.4699   -0.0769 H   0  0  0  0  0  0  0  0  0  0  0  0
    2.0908   -0.7112    2.1893 H   0  0  0  0  0  0  0  0  0  0  0  0
    1.4459   -3.1611    3.2403 H   0  0  0  0  0  0  0  0  0  0  0  0
    0.3014   -5.3209    2.7089 H   0  0  0  0  0  0  0  0  0  0  0  0
   -0.7036   -5.6844    0.4620 H   0  0  0  0  0  0  0  0  0  0  0  0
   -0.5720   -3.8961   -1.2785 H   0  0  0  0  0  0  0  0  0  0  0  0
   -2.9304    2.2653    0.2503 H   0  0  0  0  0  0  0  0  0  0  0  0
   -3.2089    4.2170    1.7001 H   0  0  0  0  0  0  0  0  0  0  0  0
   -2.4205    6.4541    2.3928 H   0  0  0  0  0  0  0  0  0  0  0  0
    0.2217    6.0788   -0.1019 H   0  0  0  0  0  0  0  0  0  0  0  0
    0.5383    4.1175   -1.5491 H   0  0  0  0  0  0  0  0  0  0  0  0
  1  2  2  0
  2  3  1  0
  3  4  1  0
  4  5  1  0
  5  6  1  0
  6  7  2  0
  7  8  1  0
  8  9  1  0
  9 10  2  0
 10 11  1  0
 11 12  2  0
 12 13  1  0
 13 14  2  0
  2 15  1  0
 15 16  2  0
 16 17  1  0
 17 18  2  0
 18 19  1  0
 18 20  1  0
 20 21  2  0
 14  6  1  0
 21 15  1  0
 14  9  1  0
  3 22  1  0
  4 23  1  0
  4 24  1  0
  5 25  1  0
  5 26  1  0
  7 27  1  0
  8 28  1  0
 10 29  1  0
 11 30  1  0
 12 31  1  0
 13 32  1  0
 16 33  1  0
 17 34  1  0
 19 35  1  0
 20 36  1  0
 21 37  1  0
M  END
>  <UniqueID>  (7) 
6

>  <SMILES>  (7) 
O=C(NCCc1c[nH]c2ccccc12)c1ccc(O)cc1

>  <Energy>  (7) 
69.08206630189272

>  <Genealogy>  (7) 
O=C(NCCc1c[nH]c2ccccc12)c1ccc(O)cc1 (3D coordinates assigned)
O=C(NCCc1c[nH]c2ccccc12)c1ccc(O)cc1 (optimized conformer: 69.08206630189272 kcal/mol)

$$$$
untitled_line_7
     RDKit          3D

 39 41  0  0  0  0  0  0  0  0999 V2000
   -3.9589    2.4603    0.7931 C   0  0  0  0  0  0  0  0  0  0  0  0
   -4.3800    1.0374    0.5326 C   0  0  0  0  0  0  0  0  0  0  0  0
   -5.7356    0.7710    0.2688 C   0  0  0  0  0  0  0  0  0  0  0  0
   -6.1657   -0.5289   -0.0002 C   0  0  0  0  0  0  0  0  0  0  0  0
   -5.2518   -1.5808   -0.0026 C   0  0  0  0  0  0  0  0  0  0  0  0
   -3.9048   -1.3389    0.2712 C   0  0  0  0  0  0  0  0  0  0  0  0
   -3.4501   -0.0364    0.5486 C   0  0  0  0  0  0  0  0  0  0  0  0
   -2.0149    0.1657    0.8650 C   0  0  0  0  0  0  0  0  0  0  0  0
   -1.6810    0.9663    1.7805 O   0  0  0  0  0  0  0  0  0  0  0  0
   -1.0029   -0.5577    0.1491 N   0  0  0  0  0  0  0  0  0  0  0  0
    0.4101   -0.4463    0.5100 C   0  0  0  0  0  0  0  0  0  0  0  0
    1.2786   -1.3056   -0.4121 C   0  0  0  0  0  0  0  0  0  0  0  0
    2.7248   -1.1882   -0.0349 C   0  0  0  0  0  0  0  0  0  0  0  0
    3.4285   -2.0267    0.8245 C   0  0  0  0  0  0  0  0  0  0  0  0
    4.6933   -1.5770    0.9915 N   0  0  0  0  0  0  0  0  0  0  0  0
    4.7895   -0.4557    0.2559 C   0  0  0  0  0  0  0  0  0  0  0  0
    5.8999    0.3774    0.1260 C   0  0  0  0  0  0  0  0  0  0  0  0
    5.7731    1.5202   -0.6850 C   0  0  0  0  0  0  0  0  0  0  0  0
    4.5524    1.8034   -1.3372 C   0  0  0  0  0  0  0  0  0  0  0  0
    3.4475    0.9456   -1.1862 C   0  0  0  0  0  0  0  0  0  0  0  0
    3.6058   -0.1824   -0.3807 C   0  0  0  0  0  0  0  0  0  0  0  0
   -4.7415    3.1806    0.4720 H   0  0  0  0  0  0  0  0  0  0  0  0
   -3.0355    2.6994    0.2246 H   0  0  0  0  0  0  0  0  0  0  0  0
   -3.7773    2.6035    1.8786 H   0  0  0  0  0  0  0  0  0  0  0  0
   -6.4634    1.5732    0.2637 H   0  0  0  0  0  0  0  0  0  0  0  0
   -7.2108   -0.7208   -0.2068 H   0  0  0  0  0  0  0  0  0  0  0  0
   -5.5892   -2.5886   -0.2078 H   0  0  0  0  0  0  0  0  0  0  0  0
   -3.2208   -2.1783    0.2905 H   0  0  0  0  0  0  0  0  0  0  0  0
   -1.2835   -1.1505   -0.6652 H   0  0  0  0  0  0  0  0  0  0  0  0
    0.7243    0.6175    0.4300 H   0  0  0  0  0  0  0  0  0  0  0  0
    0.5450   -0.7812    1.5620 H   0  0  0  0  0  0  0  0  0  0  0  0
    0.9632   -2.3689   -0.3367 H   0  0  0  0  0  0  0  0  0  0  0  0
    1.1443   -0.9803   -1.4663 H   0  0  0  0  0  0  0  0  0  0  0  0
    3.0326   -2.9098    1.3090 H   0  0  0  0  0  0  0  0  0  0  0  0
    5.4366   -2.0081    1.5849 H   0  0  0  0  0  0  0  0  0  0  0  0
    6.8291    0.1554    0.6347 H   0  0  0  0  0  0  0  0  0  0  0  0
    6.6157    2.1883   -0.8072 H   0  0  0  0  0  0  0  0  0  0  0  0
    4.4656    2.6871   -1.9559 H   0  0  0  0  0  0  0  0  0  0  0  0
    2.5081    1.1588   -1.6794 H   0  0  0  0  0  0  0  0  0  0  0  0
  1  2  1  0
  2  3  2  0
  3  4  1  0
  4  5  2  0
  5  6  1  0
  6  7  2  0
  7  8  1  0
  8  9  2  0
  8 10  1  0
 10 11  1  0
 11 12  1  0
 12 13  1  0
 13 14  2  0
 14 15  1  0
 15 16  1  0
 16 17  2  0
 17 18  1  0
 18 19  2  0
 19 20  1  0
 20 21  2  0
  7  2  1  0
 21 13  1  0
 21 16  1  0
  1 22  1  0
  1 23  1  0
  1 24  1  0
  3 25  1  0
  4 26  1  0
  5 27  1  0
  6 28  1  0
 10 29  1  0
 11 30  1  0
 11 31  1  0
 12 32  1  0
 12 33  1  0
 14 34  1  0
 15 35  1  0
 17 36  1  0
 18 37  1  0
 19 38  1  0
 20 39  1  0
M  END
>  <UniqueID>  (8) 
7

>  <SMILES>  (8) 
Cc1ccccc1C(=O)NCCc1c[nH]c2ccccc12

>  <Energy>  (8) 
73.88507010399492

>  <Genealogy>  (8) 
Cc1ccccc1C(=O)NCCc1c[nH]c2ccccc12 (3D coordinates assigned)
Cc1ccccc1C(=O)NCCc1c[nH]c2ccccc12 (optimized conformer: 73.88507010399492 kcal/mol)

$$$$
untitled_line_8
     RDKit          3D

 39 41  0  0  0  0  0  0  0  0999 V2000
   -0.8755   -2.0631   -1.0182 O   0  0  0  0  0  0  0  0  0  0  0  0
   -1.6720   -1.1741   -1.4255 C   0  0  0  0  0  0  0  0  0  0  0  0
   -3.1449   -1.4430   -1.4148 C   0  0  0  0  0  0  0  0  0  0  0  0
   -3.7574   -0.8821   -0.1615 C   0  0  0  0  0  0  0  0  0  0  0  0
   -4.2535    0.4325   -0.1404 C   0  0  0  0  0  0  0  0  0  0  0  0
   -4.7862    0.9651    1.0378 C   0  0  0  0  0  0  0  0  0  0  0  0
   -4.8191    0.1942    2.2031 C   0  0  0  0  0  0  0  0  0  0  0  0
   -4.3159   -1.1096    2.1933 C   0  0  0  0  0  0  0  0  0  0  0  0
   -3.7820   -1.6462    1.0174 C   0  0  0  0  0  0  0  0  0  0  0  0
   -1.1776    0.1037   -1.8505 N   0  0  0  0  0  0  0  0  0  0  0  0
    0.2312    0.4744   -1.7438 C   0  0  0  0  0  0  0  0  0  0  0  0
    0.5923    0.7774   -0.2879 C   0  0  0  0  0  0  0  0  0  0  0  0
    2.0385    1.1532   -0.1715 C   0  0  0  0  0  0  0  0  0  0  0  0
    2.5667    2.4405   -0.1940 C   0  0  0  0  0  0  0  0  0  0  0  0
    3.9177    2.3967   -0.1379 N   0  0  0  0  0  0  0  0  0  0  0  0
    4.2460    1.0936   -0.0934 C   0  0  0  0  0  0  0  0  0  0  0  0
    5.5273    0.5456   -0.0475 C   0  0  0  0  0  0  0  0  0  0  0  0
    5.6423   -0.8566   -0.0274 C   0  0  0  0  0  0  0  0  0  0  0  0
    4.4876   -1.6702   -0.0571 C   0  0  0  0  0  0  0  0  0  0  0  0
    3.2072   -1.0893   -0.1054 C   0  0  0  0  0  0  0  0  0  0  0  0
    3.1255    0.3033   -0.1182 C   0  0  0  0  0  0  0  0  0  0  0  0
   -3.6141   -0.9870   -2.3135 H   0  0  0  0  0  0  0  0  0  0  0  0
   -3.3298   -2.5380   -1.4741 H   0  0  0  0  0  0  0  0  0  0  0  0
   -4.2255    1.0440   -1.0337 H   0  0  0  0  0  0  0  0  0  0  0  0
   -5.1702    1.9770    1.0483 H   0  0  0  0  0  0  0  0  0  0  0  0
   -5.2305    0.6085    3.1144 H   0  0  0  0  0  0  0  0  0  0  0  0
   -4.3359   -1.7034    3.0980 H   0  0  0  0  0  0  0  0  0  0  0  0
   -3.3857   -2.6541    1.0256 H   0  0  0  0  0  0  0  0  0  0  0  0
   -1.8429    0.7913   -2.2706 H   0  0  0  0  0  0  0  0  0  0  0  0
    0.8666   -0.3465   -2.1428 H   0  0  0  0  0  0  0  0  0  0  0  0
    0.4158    1.3813   -2.3606 H   0  0  0  0  0  0  0  0  0  0  0  0
   -0.0390    1.6133    0.0842 H   0  0  0  0  0  0  0  0  0  0  0  0
    0.3932   -0.1094    0.3503 H   0  0  0  0  0  0  0  0  0  0  0  0
    1.9942    3.3566   -0.2590 H   0  0  0  0  0  0  0  0  0  0  0  0
    4.5701    3.2121   -0.1436 H   0  0  0  0  0  0  0  0  0  0  0  0
    6.4062    1.1771   -0.0312 H   0  0  0  0  0  0  0  0  0  0  0  0
    6.6221   -1.3148    0.0079 H   0  0  0  0  0  0  0  0  0  0  0  0
    4.5885   -2.7476   -0.0446 H   0  0  0  0  0  0  0  0  0  0  0  0
    2.3184   -1.7063   -0.1328 H   0  0  0  0  0  0  0  0  0  0  0  0
  1  2  2  0
  2  3  1  0
  3  4  1  0
  4  5  2  0
  5  6  1  0
  6  7  2  0
  7  8  1  0
  8  9  2  0
  2 10  1  0
 10 11  1  0
 11 12  1  0
 12 13  1  0
 13 14  2  0
 14 15  1  0
 15 16  1  0
 16 17  2  0
 17 18  1  0
 18 19  2  0
 19 20  1  0
 20 21  2  0
  9  4  1  0
 21 13  1  0
 21 16  1  0
  3 22  1  0
  3 23  1  0
  5 24  1  0
  6 25  1  0
  7 26  1  0
  8 27  1  0
  9 28  1  0
 10 29  1  0
 11 30  1  0
 11 31  1  0
 12 32  1  0
 12 33  1  0
 14 34  1  0
 15 35  1  0
 17 36  1  0
 18 37  1  0
 19 38  1  0
 20 39  1  0
M  END
>  <UniqueID>  (9) 
8

>  <SMILES>  (9) 
O=C(Cc1ccccc1)NCCc1c[nH]c2ccccc12

>  <Energy>  (9) 
66.07188561566194

>  <Genealogy>  (9) 
O=C(Cc1ccccc1)NCCc1c[nH]c2ccccc12 (3D coordinates assigned)
O=C(Cc1ccccc1)NCCc1c[nH]c2ccccc12 (optimized conformer: 66.07188561566194 kcal/mol)

$$$$
untitled_line_9
     RDKit          3D

 39 41  0  0  0  0  0  0  0  0999 V2000
    2.7878   -0.1586   -0.2906 O   0  0  0  0  0  0  0  0  0  0  0  0
    2.6589   -0.3101    0.9548 C   0  0  0  0  0  0  0  0  0  0  0  0
    1.4149    0.0152    1.5957 N   0  0  0  0  0  0  0  0  0  0  0  0
    0.2465    0.4777    0.8509 C   0  0  0  0  0  0  0  0  0  0  0  0
   -0.4135   -0.6906    0.1154 C   0  0  0  0  0  0  0  0  0  0  0  0
   -1.6120   -0.2198   -0.6517 C   0  0  0  0  0  0  0  0  0  0  0  0
   -2.9326   -0.2221   -0.2129 C   0  0  0  0  0  0  0  0  0  0  0  0
   -3.7387    0.3432   -1.1407 N   0  0  0  0  0  0  0  0  0  0  0  0
   -2.9365    0.7134   -2.1542 C   0  0  0  0  0  0  0  0  0  0  0  0
   -3.3072    1.3580   -3.3337 C   0  0  0  0  0  0  0  0  0  0  0  0
   -2.2933    1.6740   -4.2568 C   0  0  0  0  0  0  0  0  0  0  0  0
   -0.9469    1.3459   -3.9817 C   0  0  0  0  0  0  0  0  0  0  0  0
   -0.6019    0.6972   -2.7820 C   0  0  0  0  0  0  0  0  0  0  0  0
   -1.6299    0.3918   -1.8896 C   0  0  0  0  0  0  0  0  0  0  0  0
    3.8228   -0.8378    1.7567 C   0  0  0  0  0  0  0  0  0  0  0  0
    4.2437    0.1204    2.8814 C   0  0  0  0  0  0  0  0  0  0  0  0
    4.1073   -0.6548    4.1850 C   0  0  0  0  0  0  0  0  0  0  0  0
    4.1331   -2.1216    3.7976 C   0  0  0  0  0  0  0  0  0  0  0  0
    3.4998   -2.1812    2.4193 C   0  0  0  0  0  0  0  0  0  0  0  0
    1.3469   -0.0411    2.6369 H   0  0  0  0  0  0  0  0  0  0  0  0
   -0.4857    0.9196    1.5620 H   0  0  0  0  0  0  0  0  0  0  0  0
    0.5488    1.2721    0.1337 H   0  0  0  0  0  0  0  0  0  0  0  0
    0.3077   -1.1599   -0.5866 H   0  0  0  0  0  0  0  0  0  0  0  0
   -0.7248   -1.4633    0.8515 H   0  0  0  0  0  0  0  0  0  0  0  0
   -3.2814   -0.6060    0.7370 H   0  0  0  0  0  0  0  0  0  0  0  0
   -4.7721    0.4768   -1.0726 H   0  0  0  0  0  0  0  0  0  0  0  0
   -4.3405    1.6108   -3.5328 H   0  0  0  0  0  0  0  0  0  0  0  0
   -2.5464    2.1745   -5.1823 H   0  0  0  0  0  0  0  0  0  0  0  0
   -0.1752    1.5969   -4.6977 H   0  0  0  0  0  0  0  0  0  0  0  0
    0.4279    0.4469   -2.5625 H   0  0  0  0  0  0  0  0  0  0  0  0
    4.6935   -0.9838    1.0768 H   0  0  0  0  0  0  0  0  0  0  0  0
    5.3066    0.4169    2.7393 H   0  0  0  0  0  0  0  0  0  0  0  0
    3.6318    1.0489    2.9161 H   0  0  0  0  0  0  0  0  0  0  0  0
    4.9285   -0.4101    4.8931 H   0  0  0  0  0  0  0  0  0  0  0  0
    3.1306   -0.4152    4.6611 H   0  0  0  0  0  0  0  0  0  0  0  0
    5.1872   -2.4733    3.7402 H   0  0  0  0  0  0  0  0  0  0  0  0
    3.5760   -2.7450    4.5301 H   0  0  0  0  0  0  0  0  0  0  0  0
    3.9108   -3.0302    1.8305 H   0  0  0  0  0  0  0  0  0  0  0  0
    2.4028   -2.3295    2.5343 H   0  0  0  0  0  0  0  0  0  0  0  0
  1  2  2  0
  2  3  1  0
  3  4  1  0
  4  5  1  0
  5  6  1  0
  6  7  2  0
  7  8  1  0
  8  9  1  0
  9 10  2  0
 10 11  1  0
 11 12  2  0
 12 13  1  0
 13 14  2  0
  2 15  1  0
 15 16  1  0
 16 17  1  0
 17 18  1  0
 18 19  1  0
 14  6  1  0
 19 15  1  0
 14  9  1  0
  3 20  1  0
  4 21  1  0
  4 22  1  0
  5 23  1  0
  5 24  1  0
  7 25  1  0
  8 26  1  0
 10 27  1  0
 11 28  1  0
 12 29  1  0
 13 30  1  0
 15 31  1  0
 16 32  1  0
 16 33  1  0
 17 34  1  0
 17 35  1  0
 18 36  1  0
 18 37  1  0
 19 38  1  0
 19 39  1  0
M  END
>  <UniqueID>  (10) 
9

>  <SMILES>  (10) 
O=C(NCCc1c[nH]c2ccccc12)C1CCCC1

>  <Energy>  (10) 
66.94985482143139

>  <Genealogy>  (10) 
O=C(NCCc1c[nH]c2ccccc12)C1CCCC1 (3D coordinates assigned)
O=C(NCCc1c[nH]c2ccccc12)C1CCCC1 (nonaromatic ring conformer: 66.94985482143139 kcal/mol)

$$$$
untitled_line_10
     RDKit          3D

 57 62  0  0  0  0  0  0  0  0999 V2000
   -0.9411   -1.7923   -2.7422 O   0  0  0  0  0  0  0  0  0  0  0  0
   -1.2820   -1.3041   -1.6314 C   0  0  0  0  0  0  0  0  0  0  0  0
   -0.8744   -1.9256   -0.4542 O   0  0  0  0  0  0  0  0  0  0  0  0
   -2.1114   -0.0395   -1.5881 C   0  0  1  0  0  0  0  0  0  0  0  0
   -3.4655   -0.2753   -0.8352 C   0  0  0  0  0  0  0  0  0  0  0  0
   -3.1303   -0.4041    0.6427 C   0  0  0  0  0  0  0  0  0  0  0  0
   -3.4371   -1.5082    1.4425 C   0  0  0  0  0  0  0  0  0  0  0  0
   -3.0668   -1.4965    2.7940 C   0  0  0  0  0  0  0  0  0  0  0  0
   -2.3999   -0.3871    3.3388 C   0  0  0  0  0  0  0  0  0  0  0  0
   -2.0961    0.7219    2.5377 C   0  0  0  0  0  0  0  0  0  0  0  0
   -2.4597    0.7079    1.1884 C   0  0  0  0  0  0  0  0  0  0  0  0
   -2.2013    1.8371    0.2012 C   0  0  0  0  0  0  0  0  0  0  0  0
   -3.5638    2.1510   -0.3995 C   0  0  0  0  0  0  0  0  0  0  0  0
   -4.1484    3.4189   -0.4485 C   0  0  0  0  0  0  0  0  0  0  0  0
   -5.4070    3.5678   -1.0472 C   0  0  0  0  0  0  0  0  0  0  0  0
   -6.0706    2.4573   -1.5947 C   0  0  0  0  0  0  0  0  0  0  0  0
   -5.4831    1.1856   -1.5495 C   0  0  0  0  0  0  0  0  0  0  0  0
   -4.2302    1.0355   -0.9500 C   0  0  0  0  0  0  0  0  0  0  0  0
   -1.3594    1.2318   -0.9772 C   0  0  1  0  0  0  0  0  0  0  0  0
    0.0871    0.9811   -0.6021 C   0  0  0  0  0  0  0  0  0  0  0  0
    0.4168    0.8076    0.6032 O   0  0  0  0  0  0  0  0  0  0  0  0
    1.0798    0.8970   -1.6347 N   0  0  0  0  0  0  0  0  0  0  0  0
    2.4652    0.5230   -1.3622 C   0  0  0  0  0  0  0  0  0  0  0  0
    2.5654   -0.9771   -1.0764 C   0  0  0  0  0  0  0  0  0  0  0  0
    3.9835   -1.3642   -0.7862 C   0  0  0  0  0  0  0  0  0  0  0  0
    4.9201   -1.8363   -1.7006 C   0  0  0  0  0  0  0  0  0  0  0  0
    6.1183   -2.0146   -1.0984 N   0  0  0  0  0  0  0  0  0  0  0  0
    5.9485   -1.6470    0.1838 C   0  0  0  0  0  0  0  0  0  0  0  0
    6.9085   -1.6372    1.1949 C   0  0  0  0  0  0  0  0  0  0  0  0
    6.5155   -1.1911    2.4703 C   0  0  0  0  0  0  0  0  0  0  0  0
    5.1883   -0.7661    2.7027 C   0  0  0  0  0  0  0  0  0  0  0  0
    4.2412   -0.7850    1.6626 C   0  0  0  0  0  0  0  0  0  0  0  0
    4.6595   -1.2380    0.4112 C   0  0  0  0  0  0  0  0  0  0  0  0
   -0.3115   -2.7673   -0.4784 H   0  0  0  0  0  0  0  0  0  0  0  0
   -2.3699    0.2071   -2.6442 H   0  0  0  0  0  0  0  0  0  0  0  0
   -4.0363   -1.1434   -1.2323 H   0  0  0  0  0  0  0  0  0  0  0  0
   -3.9508   -2.3647    1.0255 H   0  0  0  0  0  0  0  0  0  0  0  0
   -3.2970   -2.3474    3.4219 H   0  0  0  0  0  0  0  0  0  0  0  0
   -2.1197   -0.3879    4.3842 H   0  0  0  0  0  0  0  0  0  0  0  0
   -1.5832    1.5758    2.9610 H   0  0  0  0  0  0  0  0  0  0  0  0
   -1.7209    2.7261    0.6659 H   0  0  0  0  0  0  0  0  0  0  0  0
   -3.6382    4.2775   -0.0315 H   0  0  0  0  0  0  0  0  0  0  0  0
   -5.8695    4.5453   -1.0897 H   0  0  0  0  0  0  0  0  0  0  0  0
   -7.0412    2.5848   -2.0560 H   0  0  0  0  0  0  0  0  0  0  0  0
   -5.9960    0.3328   -1.9753 H   0  0  0  0  0  0  0  0  0  0  0  0
   -1.3284    2.0122   -1.7718 H   0  0  0  0  0  0  0  0  0  0  0  0
    0.8090    1.1211   -2.6189 H   0  0  0  0  0  0  0  0  0  0  0  0
    2.8503    1.1126   -0.5014 H   0  0  0  0  0  0  0  0  0  0  0  0
    3.0886    0.7664   -2.2506 H   0  0  0  0  0  0  0  0  0  0  0  0
    1.9308   -1.2458   -0.2059 H   0  0  0  0  0  0  0  0  0  0  0  0
    2.1968   -1.5482   -1.9560 H   0  0  0  0  0  0  0  0  0  0  0  0
    4.7368   -2.0278   -2.7499 H   0  0  0  0  0  0  0  0  0  0  0  0
    6.9982   -2.3550   -1.5461 H   0  0  0  0  0  0  0  0  0  0  0  0
    7.9244   -1.9590    1.0057 H   0  0  0  0  0  0  0  0  0  0  0  0
    7.2358   -1.1706    3.2777 H   0  0  0  0  0  0  0  0  0  0  0  0
    4.8984   -0.4220    3.6869 H   0  0  0  0  0  0  0  0  0  0  0  0
    3.2239   -0.4568    1.8322 H   0  0  0  0  0  0  0  0  0  0  0  0
  1  2  2  0
  2  3  1  0
  2  4  1  0
  4  5  1  0
  5  6  1  0
  6  7  2  0
  7  8  1  0
  8  9  2  0
  9 10  1  0
 10 11  2  0
 11 12  1  0
 12 13  1  0
 13 14  2  0
 14 15  1  0
 15 16  2  0
 16 17  1  0
 17 18  2  0
 12 19  1  0
 19 20  1  0
 20 21  2  0
 20 22  1  0
 22 23  1  0
 23 24  1  0
 24 25  1  0
 25 26  2  0
 26 27  1  0
 27 28  1  0
 28 29  2  0
 29 30  1  0
 30 31  2  0
 31 32  1  0
 32 33  2  0
 19  4  1  0
 33 25  1  0
 18  5  1  0
 33 28  1  0
 11  6  1  0
 18 13  1  0
  3 34  1  0
  4 35  1  6
  5 36  1  0
  7 37  1  0
  8 38  1  0
  9 39  1  0
 10 40  1  0
 12 41  1  0
 14 42  1  0
 15 43  1  0
 16 44  1  0
 17 45  1  0
 19 46  1  6
 22 47  1  0
 23 48  1  0
 23 49  1  0
 24 50  1  0
 24 51  1  0
 26 52  1  0
 27 53  1  0
 29 54  1  0
 30 55  1  0
 31 56  1  0
 32 57  1  0
M  END
>  <UniqueID>  (11) 
10

>  <SMILES>  (11) 
O=C(O)[C@H]1C2c3ccccc3C(c3ccccc32)[C@H]1C(=O)NCCc1c[nH]c2ccccc12

>  <Energy>  (11) 
125.06357281433108

>  <Genealogy>  (11) 
O=C(O)[C@H]1C2c3ccccc3C(c3ccccc32)[C@H]1C(=O)NCCc1c[nH]c2ccccc12 (chirality)
O=C(O)[C@H]1C2c3ccccc3C(c3ccccc32)[C@H]1C(=O)NCCc1c[nH]c2ccccc12 (3D coordinates assigned)
O=C(O)[C@H]1C2c3ccccc3C(c3ccccc32)[C@H]1C(=O)NCCc1c[nH]c2ccccc12 (nonaromatic ring conformer: 125.06357281433108 kcal/mol)

$$$$
untitled_line_11
     RDKit          3D

 53 57  0  0  0  0  0  0  0  0999 V2000
   -2.4524   -0.3705    2.3345 O   0  0  0  0  0  0  0  0  0  0  0  0
   -1.9208    0.5569    1.6654 C   0  0  0  0  0  0  0  0  0  0  0  0
   -1.7871    1.8539    2.2571 N   0  0  0  0  0  0  0  0  0  0  0  0
   -1.2240    2.9854    1.5707 C   0  0  0  0  0  0  0  0  0  0  0  0
   -1.8227    4.2412    1.7624 C   0  0  0  0  0  0  0  0  0  0  0  0
   -1.3305    5.3733    1.1131 C   0  0  0  0  0  0  0  0  0  0  0  0
   -0.2280    5.2685    0.2685 C   0  0  0  0  0  0  0  0  0  0  0  0
    0.3963    4.0346    0.0835 C   0  0  0  0  0  0  0  0  0  0  0  0
   -0.0743    2.8808    0.7401 C   0  0  0  0  0  0  0  0  0  0  0  0
    0.6796    1.6024    0.5587 C   0  0  0  0  0  0  0  0  0  0  0  0
    2.1658    1.5949    0.5936 C   0  0  0  0  0  0  0  0  0  0  0  0
    2.8912    0.6576   -0.1669 C   0  0  0  0  0  0  0  0  0  0  0  0
    4.2887    0.6416   -0.1262 C   0  0  0  0  0  0  0  0  0  0  0  0
    4.9771    1.5529    0.6775 C   0  0  0  0  0  0  0  0  0  0  0  0
    4.2693    2.4800    1.4455 C   0  0  0  0  0  0  0  0  0  0  0  0
    2.8718    2.5007    1.4087 C   0  0  0  0  0  0  0  0  0  0  0  0
    0.0663    0.4758    0.3312 N   0  0  0  0  0  0  0  0  0  0  0  0
   -1.3808    0.2999    0.2793 C   0  0  1  0  0  0  0  0  0  0  0  0
   -1.6888   -1.0574   -0.2170 N   0  0  0  0  0  4  0  0  0  0  0  0
   -3.0962   -1.1823   -0.6413 C   0  0  0  0  0  0  0  0  0  0  0  0
   -3.4440   -2.6248   -1.0391 C   0  0  0  0  0  0  0  0  0  0  0  0
   -2.7138   -3.0521   -2.2795 C   0  0  0  0  0  0  0  0  0  0  0  0
   -3.0611   -2.7387   -3.5902 C   0  0  0  0  0  0  0  0  0  0  0  0
   -2.1385   -3.2235   -4.4522 N   0  0  0  0  0  0  0  0  0  0  0  0
   -1.2065   -3.8302   -3.6969 C   0  0  0  0  0  0  0  0  0  0  0  0
   -0.0432   -4.4607   -4.1362 C   0  0  0  0  0  0  0  0  0  0  0  0
    0.8122   -5.0132   -3.1655 C   0  0  0  0  0  0  0  0  0  0  0  0
    0.4910   -4.9215   -1.7931 C   0  0  0  0  0  0  0  0  0  0  0  0
   -0.6893   -4.2782   -1.3785 C   0  0  0  0  0  0  0  0  0  0  0  0
   -1.5203   -3.7439   -2.3643 C   0  0  0  0  0  0  0  0  0  0  0  0
   -2.2746    2.0197    3.1670 H   0  0  0  0  0  0  0  0  0  0  0  0
   -2.6873    4.3380    2.4071 H   0  0  0  0  0  0  0  0  0  0  0  0
   -1.8089    6.3329    1.2612 H   0  0  0  0  0  0  0  0  0  0  0  0
    0.1489    6.1468   -0.2396 H   0  0  0  0  0  0  0  0  0  0  0  0
    1.2557    3.9804   -0.5738 H   0  0  0  0  0  0  0  0  0  0  0  0
    2.3783   -0.0546   -0.8014 H   0  0  0  0  0  0  0  0  0  0  0  0
    4.8384   -0.0781   -0.7190 H   0  0  0  0  0  0  0  0  0  0  0  0
    6.0589    1.5383    0.7080 H   0  0  0  0  0  0  0  0  0  0  0  0
    4.8036    3.1805    2.0741 H   0  0  0  0  0  0  0  0  0  0  0  0
    2.3440    3.2155    2.0275 H   0  0  0  0  0  0  0  0  0  0  0  0
   -1.8066    1.0531   -0.4236 H   0  0  0  0  0  0  0  0  0  0  0  0
   -1.0809   -1.2414   -1.0493 H   0  0  0  0  0  0  0  0  0  0  0  0
   -1.4595   -1.7725    0.5130 H   0  0  0  0  0  0  0  0  0  0  0  0
   -3.2988   -0.5055   -1.5023 H   0  0  0  0  0  0  0  0  0  0  0  0
   -3.7775   -0.8854    0.1851 H   0  0  0  0  0  0  0  0  0  0  0  0
   -3.2176   -3.3169   -0.2003 H   0  0  0  0  0  0  0  0  0  0  0  0
   -4.5366   -2.6892   -1.2316 H   0  0  0  0  0  0  0  0  0  0  0  0
   -3.9336   -2.1748   -3.8936 H   0  0  0  0  0  0  0  0  0  0  0  0
   -2.1443   -3.1287   -5.4921 H   0  0  0  0  0  0  0  0  0  0  0  0
    0.1978   -4.5202   -5.1897 H   0  0  0  0  0  0  0  0  0  0  0  0
    1.7239   -5.5089   -3.4725 H   0  0  0  0  0  0  0  0  0  0  0  0
    1.1583   -5.3472   -1.0551 H   0  0  0  0  0  0  0  0  0  0  0  0
   -0.9368   -4.2016   -0.3281 H   0  0  0  0  0  0  0  0  0  0  0  0
  1  2  2  0
  2  3  1  0
  3  4  1  0
  4  5  2  0
  5  6  1  0
  6  7  2  0
  7  8  1  0
  8  9  2  0
  9 10  1  0
 10 11  1  0
 11 12  2  0
 12 13  1  0
 13 14  2  0
 14 15  1  0
 15 16  2  0
 10 17  2  0
 17 18  1  0
 18 19  1  0
 19 20  1  0
 20 21  1  0
 21 22  1  0
 22 23  2  0
 23 24  1  0
 24 25  1  0
 25 26  2  0
 26 27  1  0
 27 28  2  0
 28 29  1  0
 29 30  2  0
 18  2  1  0
 30 22  1  0
  9  4  1  0
 16 11  1  0
 30 25  1  0
  3 31  1  0
  5 32  1  0
  6 33  1  0
  7 34  1  0
  8 35  1  0
 12 36  1  0
 13 37  1  0
 14 38  1  0
 15 39  1  0
 16 40  1  0
 18 41  1  6
 19 42  1  0
 19 43  1  0
 20 44  1  0
 20 45  1  0
 21 46  1  0
 21 47  1  0
 23 48  1  0
 24 49  1  0
 26 50  1  0
 27 51  1  0
 28 52  1  0
 29 53  1  0
M  CHG  1  19   1
M  END
>  <UniqueID>  (12) 
11

>  <SMILES>  (12) 
O=C1Nc2ccccc2C(c2ccccc2)=N[C@H]1[NH2+]CCc1c[nH]c2ccccc12

>  <Energy>  (12) 
105.02713275503453

>  <Genealogy>  (12) 
O=C1Nc2ccccc2C(c2ccccc2)=NC1[NH2+]CCc1c[nH]c2ccccc12 (protonated)
O=C1Nc2ccccc2C(c2ccccc2)=N[C@H]1[NH2+]CCc1c[nH]c2ccccc12 (chirality)
O=C1Nc2ccccc2C(c2ccccc2)=N[C@H]1[NH2+]CCc1c[nH]c2ccccc12 (3D coordinates assigned)
O=C1Nc2ccccc2C(c2ccccc2)=N[C@H]1[NH2+]CCc1c[nH]c2ccccc12 (nonaromatic ring conformer: 105.02713275503453 kcal/mol)

$$$$
untitled_line_12
     RDKit          3D

 46 49  0  0  0  0  0  0  0  0999 V2000
   -1.4079   -1.0613   -1.1395 O   0  0  0  0  0  0  0  0  0  0  0  0
   -0.9074   -0.4100   -0.1822 C   0  0  0  0  0  0  0  0  0  0  0  0
    0.2704   -0.9001    0.4759 N   0  0  0  0  0  0  0  0  0  0  0  0
    1.0443   -2.0325   -0.0325 C   0  0  0  0  0  0  0  0  0  0  0  0
    1.7825   -1.6660   -1.3254 C   0  0  0  0  0  0  0  0  0  0  0  0
    2.6725   -0.4733   -1.1298 C   0  0  0  0  0  0  0  0  0  0  0  0
    2.3661    0.8477   -1.4431 C   0  0  0  0  0  0  0  0  0  0  0  0
    3.3658    1.6699   -1.0509 N   0  0  0  0  0  0  0  0  0  0  0  0
    4.2950    0.8807   -0.4841 C   0  0  0  0  0  0  0  0  0  0  0  0
    5.5022    1.2755    0.0908 C   0  0  0  0  0  0  0  0  0  0  0  0
    6.3211    0.2777    0.6508 C   0  0  0  0  0  0  0  0  0  0  0  0
    5.9177   -1.0761    0.6275 C   0  0  0  0  0  0  0  0  0  0  0  0
    4.6924   -1.4449    0.0427 C   0  0  0  0  0  0  0  0  0  0  0  0
    3.9052   -0.4341   -0.5091 C   0  0  0  0  0  0  0  0  0  0  0  0
   -1.5268    0.8688    0.2424 C   0  0  0  0  0  0  0  0  0  0  0  0
   -0.6869    1.9367    0.6090 C   0  0  0  0  0  0  0  0  0  0  0  0
   -1.2212    3.1829    0.9394 C   0  0  0  0  0  0  0  0  0  0  0  0
   -2.5996    3.3841    0.9062 C   0  0  0  0  0  0  0  0  0  0  0  0
   -3.4510    2.3365    0.5536 C   0  0  0  0  0  0  0  0  0  0  0  0
   -2.9335    1.0700    0.2288 C   0  0  0  0  0  0  0  0  0  0  0  0
   -3.8872   -0.0261   -0.0647 C   0  0  0  0  0  0  0  0  0  0  0  0
   -4.8505    0.1254   -1.0765 C   0  0  0  0  0  0  0  0  0  0  0  0
   -5.7591   -0.9032   -1.3444 C   0  0  0  0  0  0  0  0  0  0  0  0
   -5.7185   -2.0859   -0.6005 C   0  0  0  0  0  0  0  0  0  0  0  0
   -6.6005   -3.0819   -0.8618 F   0  0  0  0  0  0  0  0  0  0  0  0
   -4.7710   -2.2401    0.4155 C   0  0  0  0  0  0  0  0  0  0  0  0
   -3.8610   -1.2139    0.6870 C   0  0  0  0  0  0  0  0  0  0  0  0
    0.5741   -0.4607    1.3739 H   0  0  0  0  0  0  0  0  0  0  0  0
    1.7852   -2.3452    0.7353 H   0  0  0  0  0  0  0  0  0  0  0  0
    0.3690   -2.8955   -0.2170 H   0  0  0  0  0  0  0  0  0  0  0  0
    1.0502   -1.4556   -2.1337 H   0  0  0  0  0  0  0  0  0  0  0  0
    2.3969   -2.5319   -1.6522 H   0  0  0  0  0  0  0  0  0  0  0  0
    1.4534    1.1889   -1.9146 H   0  0  0  0  0  0  0  0  0  0  0  0
    3.3971    2.7086   -1.1536 H   0  0  0  0  0  0  0  0  0  0  0  0
    5.7999    2.3159    0.1094 H   0  0  0  0  0  0  0  0  0  0  0  0
    7.2649    0.5497    1.1052 H   0  0  0  0  0  0  0  0  0  0  0  0
    6.5544   -1.8345    1.0638 H   0  0  0  0  0  0  0  0  0  0  0  0
    4.3755   -2.4795    0.0241 H   0  0  0  0  0  0  0  0  0  0  0  0
    0.3893    1.8179    0.6124 H   0  0  0  0  0  0  0  0  0  0  0  0
   -0.5630    3.9979    1.2119 H   0  0  0  0  0  0  0  0  0  0  0  0
   -3.0106    4.3526    1.1606 H   0  0  0  0  0  0  0  0  0  0  0  0
   -4.5208    2.5077    0.5550 H   0  0  0  0  0  0  0  0  0  0  0  0
   -4.8911    1.0351   -1.6631 H   0  0  0  0  0  0  0  0  0  0  0  0
   -6.4945   -0.7822   -2.1294 H   0  0  0  0  0  0  0  0  0  0  0  0
   -4.7429   -3.1533    0.9959 H   0  0  0  0  0  0  0  0  0  0  0  0
   -3.1397   -1.3424    1.4847 H   0  0  0  0  0  0  0  0  0  0  0  0
  1  2  2  0
  2  3  1  0
  3  4  1  0
  4  5  1  0
  5  6  1  0
  6  7  2  0
  7  8  1  0
  8  9  1  0
  9 10  2  0
 10 11  1  0
 11 12  2  0
 12 13  1  0
 13 14  2  0
  2 15  1  0
 15 16  2  0
 16 17  1  0
 17 18  2  0
 18 19  1  0
 19 20  2  0
 20 21  1  0
 21 22  2  0
 22 23  1  0
 23 24  2  0
 24 25  1  0
 24 26  1  0
 26 27  2  0
 14  6  1  0
 20 15  1  0
 27 21  1  0
 14  9  1  0
  3 28  1  0
  4 29  1  0
  4 30  1  0
  5 31  1  0
  5 32  1  0
  7 33  1  0
  8 34  1  0
 10 35  1  0
 11 36  1  0
 12 37  1  0
 13 38  1  0
 16 39  1  0
 17 40  1  0
 18 41  1  0
 19 42  1  0
 22 43  1  0
 23 44  1  0
 26 45  1  0
 27 46  1  0
M  END
>  <UniqueID>  (13) 
12

>  <SMILES>  (13) 
O=C(NCCc1c[nH]c2ccccc12)c1ccccc1-c1ccc(F)cc1

>  <Energy>  (13) 
88.47558213746548

>  <Genealogy>  (13) 
O=C(NCCc1c[nH]c2ccccc12)c1ccccc1-c1ccc(F)cc1 (3D coordinates assigned)
O=C(NCCc1c[nH]c2ccccc12)c1ccccc1-c1ccc(F)cc1 (optimized conformer: 88.47558213746548 kcal/mol)

$$$$
untitled_line_13
     RDKit          3D

 46 49  0  0  0  0  0  0  0  0999 V2000
   -1.3702   -0.6000    0.5090 O   0  0  0  0  0  0  0  0  0  0  0  0
   -1.0338   -0.2183   -0.6457 C   0  0  0  0  0  0  0  0  0  0  0  0
   -2.0498    0.1151   -1.6071 N   0  0  0  0  0  0  0  0  0  0  0  0
   -3.4733   -0.0743   -1.3360 C   0  0  0  0  0  0  0  0  0  0  0  0
   -4.0005    1.0489   -0.4404 C   0  0  0  0  0  0  0  0  0  0  0  0
   -5.4587    0.8527   -0.1541 C   0  0  0  0  0  0  0  0  0  0  0  0
   -6.5250    1.4039   -0.8582 C   0  0  0  0  0  0  0  0  0  0  0  0
   -7.7004    0.9515   -0.3644 N   0  0  0  0  0  0  0  0  0  0  0  0
   -7.3843    0.1103    0.6358 C   0  0  0  0  0  0  0  0  0  0  0  0
   -8.2623   -0.6198    1.4358 C   0  0  0  0  0  0  0  0  0  0  0  0
   -7.7104   -1.4630    2.4179 C   0  0  0  0  0  0  0  0  0  0  0  0
   -6.3095   -1.5593    2.5738 C   0  0  0  0  0  0  0  0  0  0  0  0
   -5.4475   -0.8120    1.7506 C   0  0  0  0  0  0  0  0  0  0  0  0
   -6.0246    0.0194    0.7904 C   0  0  0  0  0  0  0  0  0  0  0  0
    0.4067   -0.1076   -0.9801 C   0  0  0  0  0  0  0  0  0  0  0  0
    1.3498    0.0937    0.0421 C   0  0  0  0  0  0  0  0  0  0  0  0
    2.7113    0.1968   -0.2556 C   0  0  0  0  0  0  0  0  0  0  0  0
    3.1625    0.0911   -1.5823 C   0  0  0  0  0  0  0  0  0  0  0  0
    4.6098    0.1997   -1.8989 C   0  0  0  0  0  0  0  0  0  0  0  0
    5.4150    1.1537   -1.2477 C   0  0  0  0  0  0  0  0  0  0  0  0
    6.7770    1.2543   -1.5478 C   0  0  0  0  0  0  0  0  0  0  0  0
    7.3502    0.4059   -2.4976 C   0  0  0  0  0  0  0  0  0  0  0  0
    6.5624   -0.5450   -3.1499 C   0  0  0  0  0  0  0  0  0  0  0  0
    5.1996   -0.6495   -2.8546 C   0  0  0  0  0  0  0  0  0  0  0  0
    2.2210   -0.1243   -2.6034 C   0  0  0  0  0  0  0  0  0  0  0  0
    0.8589   -0.2251   -2.3060 C   0  0  0  0  0  0  0  0  0  0  0  0
   -1.7838    0.5256   -2.5293 H   0  0  0  0  0  0  0  0  0  0  0  0
   -4.0303   -0.0629   -2.2987 H   0  0  0  0  0  0  0  0  0  0  0  0
   -3.6369   -1.0660   -0.8598 H   0  0  0  0  0  0  0  0  0  0  0  0
   -3.8508    2.0273   -0.9462 H   0  0  0  0  0  0  0  0  0  0  0  0
   -3.4407    1.0722    0.5183 H   0  0  0  0  0  0  0  0  0  0  0  0
   -6.4439    2.0888   -1.6923 H   0  0  0  0  0  0  0  0  0  0  0  0
   -8.6568    1.1967   -0.7042 H   0  0  0  0  0  0  0  0  0  0  0  0
   -9.3340   -0.5442    1.3048 H   0  0  0  0  0  0  0  0  0  0  0  0
   -8.3636   -2.0439    3.0559 H   0  0  0  0  0  0  0  0  0  0  0  0
   -5.8963   -2.2136    3.3303 H   0  0  0  0  0  0  0  0  0  0  0  0
   -4.3733   -0.8841    1.8613 H   0  0  0  0  0  0  0  0  0  0  0  0
    1.0333    0.1801    1.0743 H   0  0  0  0  0  0  0  0  0  0  0  0
    3.4135    0.3420    0.5558 H   0  0  0  0  0  0  0  0  0  0  0  0
    4.9884    1.8329   -0.5204 H   0  0  0  0  0  0  0  0  0  0  0  0
    7.3878    1.9934   -1.0455 H   0  0  0  0  0  0  0  0  0  0  0  0
    8.4047    0.4853   -2.7280 H   0  0  0  0  0  0  0  0  0  0  0  0
    7.0086   -1.2046   -3.8830 H   0  0  0  0  0  0  0  0  0  0  0  0
    4.6119   -1.4055   -3.3600 H   0  0  0  0  0  0  0  0  0  0  0  0
    2.5364   -0.2037   -3.6362 H   0  0  0  0  0  0  0  0  0  0  0  0
    0.1691   -0.4180   -3.1163 H   0  0  0  0  0  0  0  0  0  0  0  0
  1  2  2  0
  2  3  1  0
  3  4  1  0
  4  5  1  0
  5  6  1  0
  6  7  2  0
  7  8  1  0
  8  9  1  0
  9 10  2  0
 10 11  1  0
 11 12  2  0
 12 13  1  0
 13 14  2  0
  2 15  1  0
 15 16  2  0
 16 17  1  0
 17 18  2  0
 18 19  1  0
 19 20  2  0
 20 21  1  0
 21 22  2  0
 22 23  1  0
 23 24  2  0
 18 25  1  0
 25 26  2  0
 14  6  1  0
 26 15  1  0
 14  9  1  0
 24 19  1  0
  3 27  1  0
  4 28  1  0
  4 29  1  0
  5 30  1  0
  5 31  1  0
  7 32  1  0
  8 33  1  0
 10 34  1  0
 11 35  1  0
 12 36  1  0
 13 37  1  0
 16 38  1  0
 17 39  1  0
 20 40  1  0
 21 41  1  0
 22 42  1  0
 23 43  1  0
 24 44  1  0
 25 45  1  0
 26 46  1  0
M  END
>  <UniqueID>  (14) 
13

>  <SMILES>  (14) 
O=C(NCCc1c[nH]c2ccccc12)c1ccc(-c2ccccc2)cc1

>  <Energy>  (14) 
86.23245589929338

>  <Genealogy>  (14) 
O=C(NCCc1c[nH]c2ccccc12)c1ccc(-c2ccccc2)cc1 (3D coordinates assigned)
O=C(NCCc1c[nH]c2ccccc12)c1ccc(-c2ccccc2)cc1 (optimized conformer: 86.23245589929338 kcal/mol)

$$$$
untitled_line_14
     RDKit          3D

 50 53  0  0  0  0  0  0  0  0999 V2000
   -2.2859    2.8357   -0.3909 C   0  0  0  0  0  0  0  0  0  0  0  0
   -1.1624    2.1716   -0.9579 O   0  0  0  0  0  0  0  0  0  0  0  0
    0.1752    2.4363   -0.6178 C   0  0  0  0  0  0  0  0  0  0  0  0
    0.5228    3.4384    0.3100 C   0  0  0  0  0  0  0  0  0  0  0  0
    1.8611    3.6551    0.6482 C   0  0  0  0  0  0  0  0  0  0  0  0
    2.8655    2.8800    0.0679 C   0  0  0  0  0  0  0  0  0  0  0  0
    2.5364    1.8866   -0.8557 C   0  0  0  0  0  0  0  0  0  0  0  0
    1.1953    1.6591   -1.2060 C   0  0  0  0  0  0  0  0  0  0  0  0
    0.8629    0.5915   -2.1767 C   0  0  0  0  0  0  0  0  0  0  0  0
    0.2493    0.9604   -3.3867 C   0  0  0  0  0  0  0  0  0  0  0  0
   -0.0186    0.0061   -4.3684 C   0  0  0  0  0  0  0  0  0  0  0  0
    0.3308   -1.3268   -4.1602 C   0  0  0  0  0  0  0  0  0  0  0  0
    0.9392   -1.7123   -2.9648 C   0  0  0  0  0  0  0  0  0  0  0  0
    1.1991   -0.7704   -1.9523 C   0  0  0  0  0  0  0  0  0  0  0  0
    1.7596   -1.2633   -0.6689 C   0  0  0  0  0  0  0  0  0  0  0  0
    2.6400   -2.1666   -0.6895 O   0  0  0  0  0  0  0  0  0  0  0  0
    1.2543   -0.7899    0.5899 N   0  0  0  0  0  0  0  0  0  0  0  0
    1.4261   -1.5397    1.8329 C   0  0  0  0  0  0  0  0  0  0  0  0
    0.2940   -2.5590    2.0084 C   0  0  0  0  0  0  0  0  0  0  0  0
   -1.0466   -1.8820    2.0525 C   0  0  0  0  0  0  0  0  0  0  0  0
   -1.6148   -1.2524    3.1558 C   0  0  0  0  0  0  0  0  0  0  0  0
   -2.7455   -0.6019    2.7990 N   0  0  0  0  0  0  0  0  0  0  0  0
   -2.8879   -0.7995    1.4768 C   0  0  0  0  0  0  0  0  0  0  0  0
   -3.8794   -0.2778    0.6460 C   0  0  0  0  0  0  0  0  0  0  0  0
   -3.8057   -0.5678   -0.7289 C   0  0  0  0  0  0  0  0  0  0  0  0
   -2.7552   -1.3624   -1.2373 C   0  0  0  0  0  0  0  0  0  0  0  0
   -1.7734   -1.8815   -0.3738 C   0  0  0  0  0  0  0  0  0  0  0  0
   -1.8711   -1.5761    0.9845 C   0  0  0  0  0  0  0  0  0  0  0  0
   -2.3176    2.6621    0.7055 H   0  0  0  0  0  0  0  0  0  0  0  0
   -3.2123    2.4272   -0.8428 H   0  0  0  0  0  0  0  0  0  0  0  0
   -2.2362    3.9230   -0.6066 H   0  0  0  0  0  0  0  0  0  0  0  0
   -0.2337    4.0511    0.7802 H   0  0  0  0  0  0  0  0  0  0  0  0
    2.1194    4.4250    1.3638 H   0  0  0  0  0  0  0  0  0  0  0  0
    3.9013    3.0495    0.3337 H   0  0  0  0  0  0  0  0  0  0  0  0
    3.3269    1.2935   -1.3001 H   0  0  0  0  0  0  0  0  0  0  0  0
   -0.0060    1.9961   -3.5779 H   0  0  0  0  0  0  0  0  0  0  0  0
   -0.4897    0.3024   -5.2969 H   0  0  0  0  0  0  0  0  0  0  0  0
    0.1251   -2.0650   -4.9250 H   0  0  0  0  0  0  0  0  0  0  0  0
    1.1800   -2.7581   -2.8175 H   0  0  0  0  0  0  0  0  0  0  0  0
    0.5141   -0.0561    0.5945 H   0  0  0  0  0  0  0  0  0  0  0  0
    2.4055   -2.0639    1.8396 H   0  0  0  0  0  0  0  0  0  0  0  0
    1.4250   -0.8306    2.6888 H   0  0  0  0  0  0  0  0  0  0  0  0
    0.3203   -3.2959    1.1788 H   0  0  0  0  0  0  0  0  0  0  0  0
    0.4505   -3.1161    2.9565 H   0  0  0  0  0  0  0  0  0  0  0  0
   -1.2033   -1.2439    4.1571 H   0  0  0  0  0  0  0  0  0  0  0  0
   -3.3615   -0.0329    3.4212 H   0  0  0  0  0  0  0  0  0  0  0  0
   -4.6743    0.3411    1.0425 H   0  0  0  0  0  0  0  0  0  0  0  0
   -4.5534   -0.1700   -1.4025 H   0  0  0  0  0  0  0  0  0  0  0  0
   -2.7027   -1.5722   -2.2977 H   0  0  0  0  0  0  0  0  0  0  0  0
   -0.9676   -2.4917   -0.7579 H   0  0  0  0  0  0  0  0  0  0  0  0
  1  2  1  0
  2  3  1  0
  3  4  2  0
  4  5  1  0
  5  6  2  0
  6  7  1  0
  7  8  2  0
  8  9  1  0
  9 10  2  0
 10 11  1  0
 11 12  2  0
 12 13  1  0
 13 14  2  0
 14 15  1  0
 15 16  2  0
 15 17  1  0
 17 18  1  0
 18 19  1  0
 19 20  1  0
 20 21  2  0
 21 22  1  0
 22 23  1  0
 23 24  2  0
 24 25  1  0
 25 26  2  0
 26 27  1  0
 27 28  2  0
  8  3  1  0
 14  9  1  0
 28 20  1  0
 28 23  1  0
  1 29  1  0
  1 30  1  0
  1 31  1  0
  4 32  1  0
  5 33  1  0
  6 34  1  0
  7 35  1  0
 10 36  1  0
 11 37  1  0
 12 38  1  0
 13 39  1  0
 17 40  1  0
 18 41  1  0
 18 42  1  0
 19 43  1  0
 19 44  1  0
 21 45  1  0
 22 46  1  0
 24 47  1  0
 25 48  1  0
 26 49  1  0
 27 50  1  0
M  END
>  <UniqueID>  (15) 
14

>  <SMILES>  (15) 
COc1ccccc1-c1ccccc1C(=O)NCCc1c[nH]c2ccccc12

>  <Energy>  (15) 
89.91074468217788

>  <Genealogy>  (15) 
COc1ccccc1-c1ccccc1C(=O)NCCc1c[nH]c2ccccc12 (3D coordinates assigned)
COc1ccccc1-c1ccccc1C(=O)NCCc1c[nH]c2ccccc12 (optimized conformer: 89.91074468217788 kcal/mol)

$$$$
untitled_line_15
     RDKit          3D

 56 60  0  0  0  0  0  0  0  0999 V2000
    0.4818    5.0325   -3.3658 C   0  0  0  0  0  0  0  0  0  0  0  0
    0.5908    5.1194   -1.9772 C   0  0  0  0  0  0  0  0  0  0  0  0
    0.5548    3.9606   -1.1966 C   0  0  0  0  0  0  0  0  0  0  0  0
    0.4196    2.6917   -1.7955 C   0  0  0  0  0  0  0  0  0  0  0  0
    0.3526    1.5064   -0.9521 N   0  0  1  0  0  4  0  0  0  0  0  0
   -1.0420    1.1942   -0.5628 C   0  0  0  0  0  0  0  0  0  0  0  0
   -1.8353    0.5186   -1.7025 C   0  0  2  0  0  0  0  0  0  0  0  0
   -3.2378    0.0501   -1.2506 C   0  0  0  0  0  0  0  0  0  0  0  0
   -3.1909   -1.0620   -0.2726 N   0  0  0  0  0  4  0  0  0  0  0  0
   -3.4883   -0.6222    1.1061 C   0  0  0  0  0  0  0  0  0  0  0  0
   -2.9038   -1.5892    2.1529 C   0  0  0  0  0  0  0  0  0  0  0  0
   -1.4231   -1.3830    2.3210 C   0  0  0  0  0  0  0  0  0  0  0  0
   -0.8199   -0.3371    3.0152 C   0  0  0  0  0  0  0  0  0  0  0  0
    0.5192   -0.3535    2.8290 N   0  0  0  0  0  0  0  0  0  0  0  0
    0.7690   -1.3950    2.0175 C   0  0  0  0  0  0  0  0  0  0  0  0
    2.0050   -1.7852    1.5044 C   0  0  0  0  0  0  0  0  0  0  0  0
    2.0372   -2.8898    0.6349 C   0  0  0  0  0  0  0  0  0  0  0  0
    0.8465   -3.5692    0.2973 C   0  0  0  0  0  0  0  0  0  0  0  0
   -0.3877   -3.1505    0.8260 C   0  0  0  0  0  0  0  0  0  0  0  0
   -0.3899   -2.0515    1.6871 C   0  0  0  0  0  0  0  0  0  0  0  0
   -1.1041   -0.5874   -2.2336 O   0  0  0  0  0  0  0  0  0  0  0  0
    0.2903   -0.6491   -2.1936 C   0  0  0  0  0  0  0  0  0  0  0  0
    0.9503   -1.7337   -2.7794 C   0  0  0  0  0  0  0  0  0  0  0  0
    2.3442   -1.8135   -2.7351 C   0  0  0  0  0  0  0  0  0  0  0  0
    3.0832   -0.8086   -2.1062 C   0  0  0  0  0  0  0  0  0  0  0  0
    2.4305    0.2781   -1.5177 C   0  0  0  0  0  0  0  0  0  0  0  0
    1.0266    0.3656   -1.5466 C   0  0  0  0  0  0  0  0  0  0  0  0
    0.2950    2.6238   -3.2030 C   0  0  0  0  0  0  0  0  0  0  0  0
    0.3318    3.7869   -3.9772 C   0  0  0  0  0  0  0  0  0  0  0  0
    0.5085    5.9314   -3.9681 H   0  0  0  0  0  0  0  0  0  0  0  0
    0.6994    6.0866   -1.5036 H   0  0  0  0  0  0  0  0  0  0  0  0
    0.6298    4.0508   -0.1202 H   0  0  0  0  0  0  0  0  0  0  0  0
    0.8599    1.7157   -0.0581 H   0  0  0  0  0  0  0  0  0  0  0  0
   -1.0095    0.5085    0.3058 H   0  0  0  0  0  0  0  0  0  0  0  0
   -1.5713    2.1154   -0.2290 H   0  0  0  0  0  0  0  0  0  0  0  0
   -1.9811    1.2624   -2.5138 H   0  0  0  0  0  0  0  0  0  0  0  0
   -3.8183    0.9184   -0.8639 H   0  0  0  0  0  0  0  0  0  0  0  0
   -3.7792   -0.2915   -2.1618 H   0  0  0  0  0  0  0  0  0  0  0  0
   -2.2670   -1.5437   -0.3152 H   0  0  0  0  0  0  0  0  0  0  0  0
   -3.9079   -1.7762   -0.5424 H   0  0  0  0  0  0  0  0  0  0  0  0
   -4.5919   -0.5775    1.2440 H   0  0  0  0  0  0  0  0  0  0  0  0
   -3.1042    0.4031    1.3042 H   0  0  0  0  0  0  0  0  0  0  0  0
   -3.3965   -1.3992    3.1306 H   0  0  0  0  0  0  0  0  0  0  0  0
   -3.1222   -2.6412    1.8706 H   0  0  0  0  0  0  0  0  0  0  0  0
   -1.3391    0.4186    3.5901 H   0  0  0  0  0  0  0  0  0  0  0  0
    1.2115    0.3278    3.2122 H   0  0  0  0  0  0  0  0  0  0  0  0
    2.9108   -1.2500    1.7582 H   0  0  0  0  0  0  0  0  0  0  0  0
    2.9798   -3.2154    0.2148 H   0  0  0  0  0  0  0  0  0  0  0  0
    0.8828   -4.4134   -0.3787 H   0  0  0  0  0  0  0  0  0  0  0  0
   -1.3027   -3.6649    0.5639 H   0  0  0  0  0  0  0  0  0  0  0  0
    0.3816   -2.5164   -3.2648 H   0  0  0  0  0  0  0  0  0  0  0  0
    2.8520   -2.6558   -3.1865 H   0  0  0  0  0  0  0  0  0  0  0  0
    4.1631   -0.8721   -2.0740 H   0  0  0  0  0  0  0  0  0  0  0  0
    3.0145    1.0529   -1.0374 H   0  0  0  0  0  0  0  0  0  0  0  0
    0.1690    1.6758   -3.7074 H   0  0  0  0  0  0  0  0  0  0  0  0
    0.2404    3.7221   -5.0537 H   0  0  0  0  0  0  0  0  0  0  0  0
  1  2  2  0
  2  3  1  0
  3  4  2  0
  4  5  1  0
  5  6  1  0
  6  7  1  0
  7  8  1  0
  8  9  1  0
  9 10  1  0
 10 11  1  0
 11 12  1  0
 12 13  2  0
 13 14  1  0
 14 15  1  0
 15 16  2  0
 16 17  1  0
 17 18  2  0
 18 19  1  0
 19 20  2  0
  7 21  1  0
 21 22  1  0
 22 23  2  0
 23 24  1  0
 24 25  2  0
 25 26  1  0
 26 27  2  0
  4 28  1  0
 28 29  2  0
 29  1  1  0
 27  5  1  0
 20 12  1  0
 27 22  1  0
 20 15  1  0
  1 30  1  0
  2 31  1  0
  3 32  1  0
  5 33  1  1
  6 34  1  0
  6 35  1  0
  7 36  1  6
  8 37  1  0
  8 38  1  0
  9 39  1  0
  9 40  1  0
 10 41  1  0
 10 42  1  0
 11 43  1  0
 11 44  1  0
 13 45  1  0
 14 46  1  0
 16 47  1  0
 17 48  1  0
 18 49  1  0
 19 50  1  0
 23 51  1  0
 24 52  1  0
 25 53  1  0
 26 54  1  0
 28 55  1  0
 29 56  1  0
M  CHG  2   5   1   9   1
M  END
>  <UniqueID>  (16) 
15

>  <SMILES>  (16) 
c1ccc([N@H+]2C[C@H](C[NH2+]CCc3c[nH]c4ccccc34)Oc3ccccc32)cc1

>  <Energy>  (16) 
97.93812707717824

>  <Genealogy>  (16) 
c1ccc([NH+]2CC(C[NH2+]CCc3c[nH]c4ccccc34)Oc3ccccc32)cc1 (protonated)
c1ccc([N@H+]2C[C@H](C[NH2+]CCc3c[nH]c4ccccc34)Oc3ccccc32)cc1 (chirality)
c1ccc([N@H+]2C[C@H](C[NH2+]CCc3c[nH]c4ccccc34)Oc3ccccc32)cc1 (3D coordinates assigned)
c1ccc([N@H+]2C[C@H](C[NH2+]CCc3c[nH]c4ccccc34)Oc3ccccc32)cc1 (nonaromatic ring conformer: 97.93812707717824 kcal/mol)

$$$$
untitled_line_16
     RDKit          3D

 41 44  0  0  0  0  0  0  0  0999 V2000
    0.2178    3.2868   -0.1674 C   0  0  0  0  0  0  0  0  0  0  0  0
   -0.5694    2.8126   -1.2395 C   0  0  0  0  0  0  0  0  0  0  0  0
   -1.3741    1.6696   -1.0823 C   0  0  0  0  0  0  0  0  0  0  0  0
   -1.3536    1.0228    0.1536 C   0  0  0  0  0  0  0  0  0  0  0  0
   -2.0194   -0.1005    0.6084 C   0  0  0  0  0  0  0  0  0  0  0  0
   -3.0080   -0.9409   -0.1569 C   0  0  0  0  0  0  0  0  0  0  0  0
   -2.9756   -2.4370    0.2137 C   0  0  0  0  0  0  0  0  0  0  0  0
   -1.6403   -3.0597    0.1069 N   0  0  0  0  0  4  0  0  0  0  0  0
   -1.1712   -3.2461   -1.2829 C   0  0  0  0  0  0  0  0  0  0  0  0
   -0.4158   -2.0492   -1.8167 C   0  0  0  0  0  0  0  0  0  0  0  0
   -0.8318   -1.4244   -3.0225 C   0  0  0  0  0  0  0  0  0  0  0  0
   -0.1134   -0.3364   -3.5511 C   0  0  0  0  0  0  0  0  0  0  0  0
    1.0100    0.0990   -2.8562 C   0  0  0  0  0  0  0  0  0  0  0  0
    1.4241   -0.5006   -1.7122 C   0  0  0  0  0  0  0  0  0  0  0  0
    0.7523   -1.5887   -1.1641 C   0  0  0  0  0  0  0  0  0  0  0  0
    2.5531    0.1397   -1.2387 O   0  0  0  0  0  0  0  0  0  0  0  0
    2.8632    1.2131   -2.1387 C   0  0  0  0  0  0  0  0  0  0  0  0
    1.8563    1.1479   -3.1592 O   0  0  0  0  0  0  0  0  0  0  0  0
   -1.6661   -0.2212    1.9523 C   0  0  0  0  0  0  0  0  0  0  0  0
   -0.7872    0.7460    2.3007 N   0  0  0  0  0  0  0  0  0  0  0  0
   -0.6036    1.4954    1.2002 C   0  0  0  0  0  0  0  0  0  0  0  0
    0.2000    2.6278    1.0748 C   0  0  0  0  0  0  0  0  0  0  0  0
    0.8330    4.1664   -0.3000 H   0  0  0  0  0  0  0  0  0  0  0  0
   -0.5516    3.3301   -2.1896 H   0  0  0  0  0  0  0  0  0  0  0  0
   -1.9828    1.3080   -1.9003 H   0  0  0  0  0  0  0  0  0  0  0  0
   -2.8442   -0.8314   -1.2467 H   0  0  0  0  0  0  0  0  0  0  0  0
   -4.0257   -0.5488    0.0521 H   0  0  0  0  0  0  0  0  0  0  0  0
   -3.7058   -2.9838   -0.4243 H   0  0  0  0  0  0  0  0  0  0  0  0
   -3.3406   -2.5444    1.2597 H   0  0  0  0  0  0  0  0  0  0  0  0
   -1.7203   -4.0122    0.5350 H   0  0  0  0  0  0  0  0  0  0  0  0
   -0.9418   -2.5436    0.6868 H   0  0  0  0  0  0  0  0  0  0  0  0
   -2.0207   -3.5123   -1.9518 H   0  0  0  0  0  0  0  0  0  0  0  0
   -0.4761   -4.1147   -1.3180 H   0  0  0  0  0  0  0  0  0  0  0  0
   -1.7109   -1.7765   -3.5473 H   0  0  0  0  0  0  0  0  0  0  0  0
   -0.4296    0.1528   -4.4635 H   0  0  0  0  0  0  0  0  0  0  0  0
    1.1252   -2.0584   -0.2637 H   0  0  0  0  0  0  0  0  0  0  0  0
    3.8706    1.0624   -2.5832 H   0  0  0  0  0  0  0  0  0  0  0  0
    2.8059    2.1858   -1.6068 H   0  0  0  0  0  0  0  0  0  0  0  0
   -2.0320   -0.9741    2.6382 H   0  0  0  0  0  0  0  0  0  0  0  0
   -0.3579    0.8897    3.2420 H   0  0  0  0  0  0  0  0  0  0  0  0
    0.7882    2.9914    1.9076 H   0  0  0  0  0  0  0  0  0  0  0  0
  1  2  2  0
  2  3  1  0
  3  4  2  0
  4  5  1  0
  5  6  1  0
  6  7  1  0
  7  8  1  0
  8  9  1  0
  9 10  1  0
 10 11  2  0
 11 12  1  0
 12 13  2  0
 13 14  1  0
 14 15  2  0
 14 16  1  0
 16 17  1  0
 17 18  1  0
  5 19  2  0
 19 20  1  0
 20 21  1  0
 21 22  2  0
 22  1  1  0
 21  4  1  0
 15 10  1  0
 18 13  1  0
  1 23  1  0
  2 24  1  0
  3 25  1  0
  6 26  1  0
  6 27  1  0
  7 28  1  0
  7 29  1  0
  8 30  1  0
  8 31  1  0
  9 32  1  0
  9 33  1  0
 11 34  1  0
 12 35  1  0
 15 36  1  0
 17 37  1  0
 17 38  1  0
 19 39  1  0
 20 40  1  0
 22 41  1  0
M  CHG  1   8   1
M  END
>  <UniqueID>  (17) 
16

>  <SMILES>  (17) 
c1ccc2c(CC[NH2+]Cc3ccc4c(c3)OCO4)c[nH]c2c1

>  <Energy>  (17) 
102.08012580160424

>  <Genealogy>  (17) 
c1ccc2c(CC[NH2+]Cc3ccc4c(c3)OCO4)c[nH]c2c1 (protonated)
c1ccc2c(CC[NH2+]Cc3ccc4c(c3)OCO4)c[nH]c2c1 (3D coordinates assigned)
c1ccc2c(CC[NH2+]Cc3ccc4c(c3)OCO4)c[nH]c2c1 (nonaromatic ring conformer: 102.08012580160424 kcal/mol)

$$$$
untitled_line_17
     RDKit          3D

 36 39  0  0  0  0  0  0  0  0999 V2000
   -5.4806    0.2704    0.7670 C   0  0  0  0  0  0  0  0  0  0  0  0
   -4.4665    0.6940    1.6548 C   0  0  0  0  0  0  0  0  0  0  0  0
   -3.1266    0.7540    1.2301 C   0  0  0  0  0  0  0  0  0  0  0  0
   -2.8450    0.3874   -0.0862 C   0  0  0  0  0  0  0  0  0  0  0  0
   -1.6542    0.3310   -0.7831 C   0  0  0  0  0  0  0  0  0  0  0  0
   -0.2773    0.6115   -0.2620 C   0  0  0  0  0  0  0  0  0  0  0  0
    0.2772   -0.6112    0.4715 C   0  0  0  0  0  0  0  0  0  0  0  0
    1.6542   -0.3307    0.9926 C   0  0  0  0  0  0  0  0  0  0  0  0
    1.9809    0.1425    2.2598 C   0  0  0  0  0  0  0  0  0  0  0  0
    3.3139    0.3519    2.3558 N   0  0  0  0  0  0  0  0  0  0  0  0
    3.8285    0.0278    1.1566 C   0  0  0  0  0  0  0  0  0  0  0  0
    5.1640    0.0989    0.7626 C   0  0  0  0  0  0  0  0  0  0  0  0
    5.4806   -0.2709   -0.5575 C   0  0  0  0  0  0  0  0  0  0  0  0
    4.4664   -0.6945   -1.4452 C   0  0  0  0  0  0  0  0  0  0  0  0
    3.1265   -0.7543   -1.0205 C   0  0  0  0  0  0  0  0  0  0  0  0
    2.8450   -0.3875    0.2957 C   0  0  0  0  0  0  0  0  0  0  0  0
   -1.9809   -0.1420   -2.0504 C   0  0  0  0  0  0  0  0  0  0  0  0
   -3.3139   -0.3515   -2.1464 N   0  0  0  0  0  0  0  0  0  0  0  0
   -3.8284   -0.0278   -0.9472 C   0  0  0  0  0  0  0  0  0  0  0  0
   -5.1640   -0.0992   -0.5532 C   0  0  0  0  0  0  0  0  0  0  0  0
   -6.5076    0.2265    1.1055 H   0  0  0  0  0  0  0  0  0  0  0  0
   -4.7215    0.9725    2.6689 H   0  0  0  0  0  0  0  0  0  0  0  0
   -2.3439    1.0730    1.9061 H   0  0  0  0  0  0  0  0  0  0  0  0
   -0.3148    1.4825    0.4277 H   0  0  0  0  0  0  0  0  0  0  0  0
    0.3891    0.8754   -1.1122 H   0  0  0  0  0  0  0  0  0  0  0  0
    0.3147   -1.4823   -0.2181 H   0  0  0  0  0  0  0  0  0  0  0  0
   -0.3891   -0.8751    1.3218 H   0  0  0  0  0  0  0  0  0  0  0  0
    1.2800    0.3340    3.0619 H   0  0  0  0  0  0  0  0  0  0  0  0
    3.8321    0.7084    3.1894 H   0  0  0  0  0  0  0  0  0  0  0  0
    5.9332    0.4310    1.4479 H   0  0  0  0  0  0  0  0  0  0  0  0
    6.5076   -0.2272   -0.8960 H   0  0  0  0  0  0  0  0  0  0  0  0
    4.7214   -0.9732   -2.4593 H   0  0  0  0  0  0  0  0  0  0  0  0
    2.3438   -1.0733   -1.6964 H   0  0  0  0  0  0  0  0  0  0  0  0
   -1.2799   -0.3331   -2.8526 H   0  0  0  0  0  0  0  0  0  0  0  0
   -3.8320   -0.7079   -2.9801 H   0  0  0  0  0  0  0  0  0  0  0  0
   -5.9331   -0.4312   -1.2386 H   0  0  0  0  0  0  0  0  0  0  0  0
  1  2  2  0
  2  3  1  0
  3  4  2  0
  4  5  1  0
  5  6  1  0
  6  7  1  0
  7  8  1  0
  8  9  2  0
  9 10  1  0
 10 11  1  0
 11 12  2  0
 12 13  1  0
 13 14  2  0
 14 15  1  0
 15 16  2  0
  5 17  2  0
 17 18  1  0
 18 19  1  0
 19 20  2  0
 20  1  1  0
 19  4  1  0
 16  8  1  0
 16 11  1  0
  1 21  1  0
  2 22  1  0
  3 23  1  0
  6 24  1  0
  6 25  1  0
  7 26  1  0
  7 27  1  0
  9 28  1  0
 10 29  1  0
 12 30  1  0
 13 31  1  0
 14 32  1  0
 15 33  1  0
 17 34  1  0
 18 35  1  0
 20 36  1  0
M  END
>  <UniqueID>  (18) 
17

>  <SMILES>  (18) 
c1ccc2c(CCc3c[nH]c4ccccc34)c[nH]c2c1

>  <Energy>  (18) 
101.67757583029179

>  <Genealogy>  (18) 
c1ccc2c(CCc3c[nH]c4ccccc34)c[nH]c2c1 (3D coordinates assigned)
c1ccc2c(CCc3c[nH]c4ccccc34)c[nH]c2c1 (optimized conformer: 101.67757583029179 kcal/mol)

$$$$
untitled_line_18
     RDKit          3D

 54 57  0  0  0  0  0  0  0  0999 V2000
    3.8643    0.6007   -2.7632 C   0  0  0  0  0  0  0  0  0  0  0  0
    4.5800   -0.2587   -1.9000 C   0  0  0  0  0  0  0  0  0  0  0  0
    3.9078   -1.2550   -1.1678 C   0  0  0  0  0  0  0  0  0  0  0  0
    2.5234   -1.3563   -1.3220 C   0  0  0  0  0  0  0  0  0  0  0  0
    1.5982   -2.2152   -0.7564 C   0  0  0  0  0  0  0  0  0  0  0  0
    1.8424   -3.2898    0.2740 C   0  0  0  0  0  0  0  0  0  0  0  0
    2.2628   -2.7362    1.5748 N   0  0  0  0  0  4  0  0  0  0  0  0
    1.2242   -1.9250    2.2419 C   0  0  0  0  0  0  0  0  0  0  0  0
    0.1295   -2.7761    2.9356 C   0  0  0  0  0  0  0  0  0  0  0  0
   -1.2044   -2.8414    2.1650 C   0  0  0  0  0  0  0  0  0  0  0  0
   -2.1759   -1.6861    2.4797 C   0  0  0  0  0  0  0  0  0  0  0  0
   -1.6832   -0.3940    1.9769 N   0  0  0  0  0  4  0  0  0  0  0  0
   -2.7399    0.6263    2.0109 C   0  0  0  0  0  0  0  0  0  0  0  0
   -2.2027    1.9431    1.5278 C   0  0  0  0  0  0  0  0  0  0  0  0
   -1.7681    3.0019    2.3187 C   0  0  0  0  0  0  0  0  0  0  0  0
   -1.2447    3.9831    1.5482 N   0  0  0  0  0  0  0  0  0  0  0  0
   -1.3308    3.5457    0.2799 C   0  0  0  0  0  0  0  0  0  0  0  0
   -0.8874    4.1970   -0.8705 C   0  0  0  0  0  0  0  0  0  0  0  0
   -1.0478    3.5374   -2.1028 C   0  0  0  0  0  0  0  0  0  0  0  0
   -1.6370    2.2548   -2.1566 C   0  0  0  0  0  0  0  0  0  0  0  0
   -2.0710    1.6193   -0.9788 C   0  0  0  0  0  0  0  0  0  0  0  0
   -1.9054    2.3016    0.2271 C   0  0  0  0  0  0  0  0  0  0  0  0
    0.3720   -1.8654   -1.3182 C   0  0  0  0  0  0  0  0  0  0  0  0
    0.5221   -0.8329   -2.1779 N   0  0  0  0  0  0  0  0  0  0  0  0
    1.8314   -0.5296   -2.1708 C   0  0  0  0  0  0  0  0  0  0  0  0
    2.4706    0.4668   -2.9079 C   0  0  0  0  0  0  0  0  0  0  0  0
    4.3914    1.3645   -3.3203 H   0  0  0  0  0  0  0  0  0  0  0  0
    5.6530   -0.1518   -1.8027 H   0  0  0  0  0  0  0  0  0  0  0  0
    4.4545   -1.9248   -0.5174 H   0  0  0  0  0  0  0  0  0  0  0  0
    2.6450   -3.9556   -0.1117 H   0  0  0  0  0  0  0  0  0  0  0  0
    0.9398   -3.9245    0.3951 H   0  0  0  0  0  0  0  0  0  0  0  0
    2.5602   -3.5213    2.1999 H   0  0  0  0  0  0  0  0  0  0  0  0
    3.1056   -2.1341    1.4319 H   0  0  0  0  0  0  0  0  0  0  0  0
    1.7189   -1.3156    3.0316 H   0  0  0  0  0  0  0  0  0  0  0  0
    0.7978   -1.1898    1.5327 H   0  0  0  0  0  0  0  0  0  0  0  0
   -0.0593   -2.3720    3.9543 H   0  0  0  0  0  0  0  0  0  0  0  0
    0.4978   -3.8135    3.0870 H   0  0  0  0  0  0  0  0  0  0  0  0
   -1.7149   -3.7871    2.4510 H   0  0  0  0  0  0  0  0  0  0  0  0
   -1.0314   -2.8995    1.0739 H   0  0  0  0  0  0  0  0  0  0  0  0
   -3.1500   -1.9334    1.9995 H   0  0  0  0  0  0  0  0  0  0  0  0
   -2.3481   -1.6284    3.5782 H   0  0  0  0  0  0  0  0  0  0  0  0
   -1.3584   -0.5061    0.9879 H   0  0  0  0  0  0  0  0  0  0  0  0
   -0.8916   -0.0725    2.5816 H   0  0  0  0  0  0  0  0  0  0  0  0
   -3.1262    0.7460    3.0481 H   0  0  0  0  0  0  0  0  0  0  0  0
   -3.5885    0.3268    1.3564 H   0  0  0  0  0  0  0  0  0  0  0  0
   -1.8134    3.0419    3.3991 H   0  0  0  0  0  0  0  0  0  0  0  0
   -0.8335    4.8845    1.8780 H   0  0  0  0  0  0  0  0  0  0  0  0
   -0.4298    5.1772   -0.8183 H   0  0  0  0  0  0  0  0  0  0  0  0
   -0.7140    4.0148   -3.0148 H   0  0  0  0  0  0  0  0  0  0  0  0
   -1.7516    1.7558   -3.1098 H   0  0  0  0  0  0  0  0  0  0  0  0
   -2.5143    0.6321   -1.0122 H   0  0  0  0  0  0  0  0  0  0  0  0
   -0.5779   -2.3423   -1.1185 H   0  0  0  0  0  0  0  0  0  0  0  0
   -0.2290   -0.3752   -2.7403 H   0  0  0  0  0  0  0  0  0  0  0  0
    1.9139    1.1159   -3.5720 H   0  0  0  0  0  0  0  0  0  0  0  0
  1  2  2  0
  2  3  1  0
  3  4  2  0
  4  5  1  0
  5  6  1  0
  6  7  1  0
  7  8  1  0
  8  9  1  0
  9 10  1  0
 10 11  1  0
 11 12  1  0
 12 13  1  0
 13 14  1  0
 14 15  2  0
 15 16  1  0
 16 17  1  0
 17 18  2  0
 18 19  1  0
 19 20  2  0
 20 21  1  0
 21 22  2  0
  5 23  2  0
 23 24  1  0
 24 25  1  0
 25 26  2  0
 26  1  1  0
 25  4  1  0
 22 14  1  0
 22 17  1  0
  1 27  1  0
  2 28  1  0
  3 29  1  0
  6 30  1  0
  6 31  1  0
  7 32  1  0
  7 33  1  0
  8 34  1  0
  8 35  1  0
  9 36  1  0
  9 37  1  0
 10 38  1  0
 10 39  1  0
 11 40  1  0
 11 41  1  0
 12 42  1  0
 12 43  1  0
 13 44  1  0
 13 45  1  0
 15 46  1  0
 16 47  1  0
 18 48  1  0
 19 49  1  0
 20 50  1  0
 21 51  1  0
 23 52  1  0
 24 53  1  0
 26 54  1  0
M  CHG  2   7   1  12   1
M  END
>  <UniqueID>  (19) 
18

>  <SMILES>  (19) 
c1ccc2c(C[NH2+]CCCC[NH2+]Cc3c[nH]c4ccccc34)c[nH]c2c1

>  <Energy>  (19) 
119.76478281704708

>  <Genealogy>  (19) 
c1ccc2c(C[NH2+]CCCC[NH2+]Cc3c[nH]c4ccccc34)c[nH]c2c1 (protonated)
c1ccc2c(C[NH2+]CCCC[NH2+]Cc3c[nH]c4ccccc34)c[nH]c2c1 (3D coordinates assigned)
c1ccc2c(C[NH2+]CCCC[NH2+]Cc3c[nH]c4ccccc34)c[nH]c2c1 (optimized conformer: 119.76478281704708 kcal/mol)

$$$$
untitled_line_19
     RDKit          3D

 49 52  0  0  0  0  0  0  0  0999 V2000
   -4.9417    0.6330    1.9256 C   0  0  0  0  0  0  0  0  0  0  0  0
   -4.1440    0.6224    0.6807 N   0  0  1  0  0  4  0  0  0  0  0  0
   -2.7147    0.4429    1.0403 C   0  0  0  0  0  0  0  0  0  0  0  0
   -1.8398    0.2888   -0.2160 C   0  0  1  0  0  0  0  0  0  0  0  0
   -0.3549    0.0502    0.1175 C   0  0  0  0  0  0  0  0  0  0  0  0
    0.2791    1.2397    0.7165 N   0  0  0  0  0  4  0  0  0  0  0  0
    1.7400    1.0785    0.8421 C   0  0  0  0  0  0  0  0  0  0  0  0
    2.4766    1.4402   -0.4583 C   0  0  0  0  0  0  0  0  0  0  0  0
    3.9548    1.2543   -0.2922 C   0  0  0  0  0  0  0  0  0  0  0  0
    4.8791    2.2282    0.0736 C   0  0  0  0  0  0  0  0  0  0  0  0
    6.1120    1.6852    0.1975 N   0  0  0  0  0  0  0  0  0  0  0  0
    5.9707    0.3759   -0.0740 C   0  0  0  0  0  0  0  0  0  0  0  0
    6.9630   -0.6033   -0.0552 C   0  0  0  0  0  0  0  0  0  0  0  0
    6.5869   -1.9262   -0.3529 C   0  0  0  0  0  0  0  0  0  0  0  0
    5.2424   -2.2375   -0.6551 C   0  0  0  0  0  0  0  0  0  0  0  0
    4.2618   -1.2288   -0.6646 C   0  0  0  0  0  0  0  0  0  0  0  0
    4.6666    0.0737   -0.3715 C   0  0  0  0  0  0  0  0  0  0  0  0
   -2.3200   -0.8151   -0.9741 O   0  0  0  0  0  0  0  0  0  0  0  0
   -3.6839   -1.0844   -1.0811 C   0  0  0  0  0  0  0  0  0  0  0  0
   -4.1185   -2.0417   -2.0031 C   0  0  0  0  0  0  0  0  0  0  0  0
   -5.4810   -2.2867   -2.1703 C   0  0  0  0  0  0  0  0  0  0  0  0
   -6.4144   -1.5649   -1.4272 C   0  0  0  0  0  0  0  0  0  0  0  0
   -5.9888   -0.6147   -0.4944 C   0  0  0  0  0  0  0  0  0  0  0  0
   -4.6103   -0.3945   -0.2632 C   0  0  0  0  0  0  0  0  0  0  0  0
   -5.0599   -0.3958    2.3334 H   0  0  0  0  0  0  0  0  0  0  0  0
   -5.9425    1.0814    1.7520 H   0  0  0  0  0  0  0  0  0  0  0  0
   -4.4620    1.2667    2.7047 H   0  0  0  0  0  0  0  0  0  0  0  0
   -4.2500    1.5571    0.2196 H   0  0  0  0  0  0  0  0  0  0  0  0
   -2.3692    1.3287    1.6173 H   0  0  0  0  0  0  0  0  0  0  0  0
   -2.5887   -0.4608    1.6811 H   0  0  0  0  0  0  0  0  0  0  0  0
   -1.9335    1.2069   -0.8374 H   0  0  0  0  0  0  0  0  0  0  0  0
   -0.2655   -0.8187    0.8083 H   0  0  0  0  0  0  0  0  0  0  0  0
    0.1606   -0.2224   -0.8285 H   0  0  0  0  0  0  0  0  0  0  0  0
    0.0583    2.0951    0.1543 H   0  0  0  0  0  0  0  0  0  0  0  0
   -0.1055    1.3740    1.6800 H   0  0  0  0  0  0  0  0  0  0  0  0
    2.1100    1.7544    1.6464 H   0  0  0  0  0  0  0  0  0  0  0  0
    1.9960    0.0392    1.1516 H   0  0  0  0  0  0  0  0  0  0  0  0
    2.2692    2.4994   -0.7237 H   0  0  0  0  0  0  0  0  0  0  0  0
    2.1282    0.8055   -1.2985 H   0  0  0  0  0  0  0  0  0  0  0  0
    4.6587    3.2730    0.2501 H   0  0  0  0  0  0  0  0  0  0  0  0
    6.9901    2.1830    0.4651 H   0  0  0  0  0  0  0  0  0  0  0  0
    7.9893   -0.3562    0.1838 H   0  0  0  0  0  0  0  0  0  0  0  0
    7.3322   -2.7108   -0.3470 H   0  0  0  0  0  0  0  0  0  0  0  0
    4.9642   -3.2591   -0.8791 H   0  0  0  0  0  0  0  0  0  0  0  0
    3.2290   -1.4606   -0.8905 H   0  0  0  0  0  0  0  0  0  0  0  0
   -3.3980   -2.5814   -2.6045 H   0  0  0  0  0  0  0  0  0  0  0  0
   -5.8145   -3.0215   -2.8917 H   0  0  0  0  0  0  0  0  0  0  0  0
   -7.4724   -1.7356   -1.5796 H   0  0  0  0  0  0  0  0  0  0  0  0
   -6.7453   -0.0565    0.0368 H   0  0  0  0  0  0  0  0  0  0  0  0
  1  2  1  0
  2  3  1  0
  3  4  1  0
  4  5  1  0
  5  6  1  0
  6  7  1  0
  7  8  1  0
  8  9  1  0
  9 10  2  0
 10 11  1  0
 11 12  1  0
 12 13  2  0
 13 14  1  0
 14 15  2  0
 15 16  1  0
 16 17  2  0
  4 18  1  0
 18 19  1  0
 19 20  2  0
 20 21  1  0
 21 22  2  0
 22 23  1  0
 23 24  2  0
 24  2  1  0
 17  9  1  0
 24 19  1  0
 17 12  1  0
  1 25  1  0
  1 26  1  0
  1 27  1  0
  2 28  1  6
  3 29  1  0
  3 30  1  0
  4 31  1  6
  5 32  1  0
  5 33  1  0
  6 34  1  0
  6 35  1  0
  7 36  1  0
  7 37  1  0
  8 38  1  0
  8 39  1  0
 10 40  1  0
 11 41  1  0
 13 42  1  0
 14 43  1  0
 15 44  1  0
 16 45  1  0
 20 46  1  0
 21 47  1  0
 22 48  1  0
 23 49  1  0
M  CHG  2   2   1   6   1
M  END
>  <UniqueID>  (20) 
19

>  <SMILES>  (20) 
C[N@H+]1C[C@@H](C[NH2+]CCc2c[nH]c3ccccc23)Oc2ccccc21

>  <Energy>  (20) 
90.13601730953599

>  <Genealogy>  (20) 
C[NH+]1CC(C[NH2+]CCc2c[nH]c3ccccc23)Oc2ccccc21 (protonated)
C[N@H+]1C[C@@H](C[NH2+]CCc2c[nH]c3ccccc23)Oc2ccccc21 (chirality)
C[N@H+]1C[C@@H](C[NH2+]CCc2c[nH]c3ccccc23)Oc2ccccc21 (3D coordinates assigned)
C[N@H+]1C[C@@H](C[NH2+]CCc2c[nH]c3ccccc23)Oc2ccccc21 (nonaromatic ring conformer: 90.13601730953599 kcal/mol)

$$$$
untitled_line_20
     RDKit          3D

 48 51  0  0  0  0  0  0  0  0999 V2000
   -0.9799   -1.7130    1.3274 O   0  0  0  0  0  0  0  0  0  0  0  0
   -1.0036   -2.4286    0.2883 C   0  0  0  0  0  0  0  0  0  0  0  0
    0.1932   -2.6229   -0.4758 N   0  0  0  0  0  0  0  0  0  0  0  0
    1.3823   -1.7991   -0.2718 C   0  0  0  0  0  0  0  0  0  0  0  0
    1.1549   -0.3993   -0.8468 C   0  0  0  0  0  0  0  0  0  0  0  0
    2.2745    0.5213   -0.4706 C   0  0  0  0  0  0  0  0  0  0  0  0
    3.4911    0.6644   -1.1300 C   0  0  0  0  0  0  0  0  0  0  0  0
    4.2815    1.5446   -0.4735 N   0  0  0  0  0  0  0  0  0  0  0  0
    3.5779    1.9485    0.5989 C   0  0  0  0  0  0  0  0  0  0  0  0
    3.9810    2.8483    1.5847 C   0  0  0  0  0  0  0  0  0  0  0  0
    3.0834    3.1202    2.6336 C   0  0  0  0  0  0  0  0  0  0  0  0
    1.8189    2.4914    2.6752 C   0  0  0  0  0  0  0  0  0  0  0  0
    1.4396    1.5858    1.6680 C   0  0  0  0  0  0  0  0  0  0  0  0
    2.3493    1.3406    0.6383 C   0  0  0  0  0  0  0  0  0  0  0  0
   -2.2253   -3.0530   -0.1283 N   0  0  0  0  0  0  0  0  0  0  0  0
   -3.4985   -2.7351    0.4564 C   0  0  0  0  0  0  0  0  0  0  0  0
   -4.2942   -3.7829    0.9423 C   0  0  0  0  0  0  0  0  0  0  0  0
   -5.5134   -3.5169    1.5680 C   0  0  0  0  0  0  0  0  0  0  0  0
   -5.9556   -2.2013    1.7065 C   0  0  0  0  0  0  0  0  0  0  0  0
   -5.1899   -1.1481    1.2021 C   0  0  0  0  0  0  0  0  0  0  0  0
   -3.9657   -1.3985    0.5572 C   0  0  0  0  0  0  0  0  0  0  0  0
   -3.2325   -0.2616   -0.0503 C   0  0  0  0  0  0  0  0  0  0  0  0
   -2.8618   -0.2944   -1.4062 C   0  0  0  0  0  0  0  0  0  0  0  0
   -2.1763    0.7829   -1.9763 C   0  0  0  0  0  0  0  0  0  0  0  0
   -1.8553    1.8994   -1.1996 C   0  0  0  0  0  0  0  0  0  0  0  0
   -2.2226    1.9422    0.1478 C   0  0  0  0  0  0  0  0  0  0  0  0
   -2.9143    0.8703    0.7205 C   0  0  0  0  0  0  0  0  0  0  0  0
    0.2039   -3.3436   -1.2320 H   0  0  0  0  0  0  0  0  0  0  0  0
    1.6177   -1.7455    0.8141 H   0  0  0  0  0  0  0  0  0  0  0  0
    2.2483   -2.2687   -0.7874 H   0  0  0  0  0  0  0  0  0  0  0  0
    1.0776   -0.4589   -1.9539 H   0  0  0  0  0  0  0  0  0  0  0  0
    0.2015    0.0170   -0.4638 H   0  0  0  0  0  0  0  0  0  0  0  0
    3.7835    0.1471   -2.0345 H   0  0  0  0  0  0  0  0  0  0  0  0
    5.2464    1.8394   -0.7428 H   0  0  0  0  0  0  0  0  0  0  0  0
    4.9534    3.3221    1.5465 H   0  0  0  0  0  0  0  0  0  0  0  0
    3.3646    3.8142    3.4149 H   0  0  0  0  0  0  0  0  0  0  0  0
    1.1376    2.7067    3.4880 H   0  0  0  0  0  0  0  0  0  0  0  0
    0.4736    1.0988    1.6970 H   0  0  0  0  0  0  0  0  0  0  0  0
   -2.1680   -3.8634   -0.7852 H   0  0  0  0  0  0  0  0  0  0  0  0
   -3.9540   -4.8074    0.8563 H   0  0  0  0  0  0  0  0  0  0  0  0
   -6.1135   -4.3319    1.9515 H   0  0  0  0  0  0  0  0  0  0  0  0
   -6.9007   -1.9977    2.1930 H   0  0  0  0  0  0  0  0  0  0  0  0
   -5.5668   -0.1363    1.2902 H   0  0  0  0  0  0  0  0  0  0  0  0
   -3.1088   -1.1501   -2.0223 H   0  0  0  0  0  0  0  0  0  0  0  0
   -1.8903    0.7503   -3.0195 H   0  0  0  0  0  0  0  0  0  0  0  0
   -1.3182    2.7290   -1.6406 H   0  0  0  0  0  0  0  0  0  0  0  0
   -1.9691    2.8054    0.7496 H   0  0  0  0  0  0  0  0  0  0  0  0
   -3.1871    0.9151    1.7677 H   0  0  0  0  0  0  0  0  0  0  0  0
  1  2  2  0
  2  3  1  0
  3  4  1  0
  4  5  1  0
  5  6  1  0
  6  7  2  0
  7  8  1  0
  8  9  1  0
  9 10  2  0
 10 11  1  0
 11 12  2  0
 12 13  1  0
 13 14  2  0
  2 15  1  0
 15 16  1  0
 16 17  2  0
 17 18  1  0
 18 19  2  0
 19 20  1  0
 20 21  2  0
 21 22  1  0
 22 23  2  0
 23 24  1  0
 24 25  2  0
 25 26  1  0
 26 27  2  0
 14  6  1  0
 21 16  1  0
 27 22  1  0
 14  9  1  0
  3 28  1  0
  4 29  1  0
  4 30  1  0
  5 31  1  0
  5 32  1  0
  7 33  1  0
  8 34  1  0
 10 35  1  0
 11 36  1  0
 12 37  1  0
 13 38  1  0
 15 39  1  0
 17 40  1  0
 18 41  1  0
 19 42  1  0
 20 43  1  0
 23 44  1  0
 24 45  1  0
 25 46  1  0
 26 47  1  0
 27 48  1  0
M  END
>  <UniqueID>  (21) 
20

>  <SMILES>  (21) 
O=C(NCCc1c[nH]c2ccccc12)Nc1ccccc1-c1ccccc1

>  <Energy>  (21) 
88.24673567454248

>  <Genealogy>  (21) 
O=C(NCCc1c[nH]c2ccccc12)Nc1ccccc1-c1ccccc1 (3D coordinates assigned)
O=C(NCCc1c[nH]c2ccccc12)Nc1ccccc1-c1ccccc1 (optimized conformer: 88.24673567454248 kcal/mol)

$$$$
untitled_line_21
     RDKit          3D

 22 23  0  0  0  0  0  0  0  0999 V2000
    3.7655   -4.0583    1.1402 Br  0  0  0  0  0  0  0  0  0  0  0  0
    2.4609   -3.1316    0.0486 C   0  0  0  0  0  0  0  0  0  0  0  0
    2.3257   -1.6834    0.5098 C   0  0  0  0  0  0  0  0  0  0  0  0
    1.3185   -0.9550   -0.3284 C   0  0  0  0  0  0  0  0  0  0  0  0
    1.5786   -0.2005   -1.4686 C   0  0  0  0  0  0  0  0  0  0  0  0
    0.4237    0.2509   -2.0092 N   0  0  0  0  0  0  0  0  0  0  0  0
   -0.5627   -0.2226   -1.2278 C   0  0  0  0  0  0  0  0  0  0  0  0
   -1.9347   -0.0387   -1.3940 C   0  0  0  0  0  0  0  0  0  0  0  0
   -2.7970   -0.6460   -0.4627 C   0  0  0  0  0  0  0  0  0  0  0  0
   -2.2748   -1.4177    0.5992 C   0  0  0  0  0  0  0  0  0  0  0  0
   -0.8855   -1.5879    0.7409 C   0  0  0  0  0  0  0  0  0  0  0  0
   -0.0560   -0.9688   -0.1945 C   0  0  0  0  0  0  0  0  0  0  0  0
    2.7945   -3.1663   -1.0107 H   0  0  0  0  0  0  0  0  0  0  0  0
    1.4859   -3.6564    0.1399 H   0  0  0  0  0  0  0  0  0  0  0  0
    2.0103   -1.6568    1.5748 H   0  0  0  0  0  0  0  0  0  0  0  0
    3.3104   -1.1745    0.4293 H   0  0  0  0  0  0  0  0  0  0  0  0
    2.5580   -0.0030   -1.8847 H   0  0  0  0  0  0  0  0  0  0  0  0
    0.3225    0.8360   -2.8682 H   0  0  0  0  0  0  0  0  0  0  0  0
   -2.3256    0.5493   -2.2143 H   0  0  0  0  0  0  0  0  0  0  0  0
   -3.8676   -0.5235   -0.5625 H   0  0  0  0  0  0  0  0  0  0  0  0
   -2.9479   -1.8827    1.3077 H   0  0  0  0  0  0  0  0  0  0  0  0
   -0.4788   -2.1811    1.5495 H   0  0  0  0  0  0  0  0  0  0  0  0
  1  2  1  0
  2  3  1  0
  3  4  1  0
  4  5  2  0
  5  6  1  0
  6  7  1  0
  7  8  2  0
  8  9  1  0
  9 10  2  0
 10 11  1  0
 11 12  2  0
 12  4  1  0
 12  7  1  0
  2 13  1  0
  2 14  1  0
  3 15  1  0
  3 16  1  0
  5 17  1  0
  6 18  1  0
  8 19  1  0
  9 20  1  0
 10 21  1  0
 11 22  1  0
M  END
>  <UniqueID>  (22) 
21

>  <SMILES>  (22) 
BrCCc1c[nH]c2ccccc12

>  <Energy>  (22) 
51.14611648825069

>  <Genealogy>  (22) 
BrCCc1c[nH]c2ccccc12 (3D coordinates assigned)
BrCCc1c[nH]c2ccccc12 (optimized conformer: 51.14611648825069 kcal/mol)

$$$$
untitled_line_22
     RDKit          3D

 30 31  0  0  0  0  0  0  0  0999 V2000
   -1.3502   -2.6697   -1.0605 N   0  0  0  0  0  0  0  0  0  0  0  0
   -1.3151   -1.3202   -1.5437 C   0  0  0  0  0  0  0  0  0  0  0  0
   -2.3918   -0.7929   -2.0419 N   0  0  0  0  0  4  0  0  0  0  0  0
   -0.1056   -0.5409   -1.4875 N   0  0  0  0  0  0  0  0  0  0  0  0
    1.1122   -0.9587   -0.7918 C   0  0  0  0  0  0  0  0  0  0  0  0
    0.9352   -0.8964    0.7300 C   0  0  0  0  0  0  0  0  0  0  0  0
    0.6496    0.5049    1.1876 C   0  0  0  0  0  0  0  0  0  0  0  0
    1.5820    1.5257    1.3476 C   0  0  0  0  0  0  0  0  0  0  0  0
    0.9648    2.6805    1.6862 N   0  0  0  0  0  0  0  0  0  0  0  0
   -0.3493    2.4006    1.7305 C   0  0  0  0  0  0  0  0  0  0  0  0
   -1.3907    3.2822    2.0169 C   0  0  0  0  0  0  0  0  0  0  0  0
   -2.7044    2.7796    1.9893 C   0  0  0  0  0  0  0  0  0  0  0  0
   -2.9450    1.4230    1.6784 C   0  0  0  0  0  0  0  0  0  0  0  0
   -1.8747    0.5562    1.3930 C   0  0  0  0  0  0  0  0  0  0  0  0
   -0.5826    1.0829    1.4283 C   0  0  0  0  0  0  0  0  0  0  0  0
   -2.2399   -3.2162   -1.0819 H   0  0  0  0  0  0  0  0  0  0  0  0
   -0.5001   -3.1497   -0.6957 H   0  0  0  0  0  0  0  0  0  0  0  0
   -3.2822   -1.3365   -2.0942 H   0  0  0  0  0  0  0  0  0  0  0  0
   -2.3953    0.1894   -2.3967 H   0  0  0  0  0  0  0  0  0  0  0  0
   -0.0870    0.3873   -1.9681 H   0  0  0  0  0  0  0  0  0  0  0  0
    1.9484   -0.2861   -1.0842 H   0  0  0  0  0  0  0  0  0  0  0  0
    1.4023   -1.9825   -1.1078 H   0  0  0  0  0  0  0  0  0  0  0  0
    0.1216   -1.5768    1.0557 H   0  0  0  0  0  0  0  0  0  0  0  0
    1.8714   -1.2479    1.2144 H   0  0  0  0  0  0  0  0  0  0  0  0
    2.6510    1.4309    1.2076 H   0  0  0  0  0  0  0  0  0  0  0  0
    1.4196    3.6042    1.8607 H   0  0  0  0  0  0  0  0  0  0  0  0
   -1.1967    4.3212    2.2500 H   0  0  0  0  0  0  0  0  0  0  0  0
   -3.5359    3.4373    2.2062 H   0  0  0  0  0  0  0  0  0  0  0  0
   -3.9598    1.0474    1.6596 H   0  0  0  0  0  0  0  0  0  0  0  0
   -2.0555   -0.4838    1.1574 H   0  0  0  0  0  0  0  0  0  0  0  0
  1  2  1  0
  2  3  2  3
  2  4  1  0
  4  5  1  0
  5  6  1  0
  6  7  1  0
  7  8  2  0
  8  9  1  0
  9 10  1  0
 10 11  2  0
 11 12  1  0
 12 13  2  0
 13 14  1  0
 14 15  2  0
 15  7  1  0
 15 10  1  0
  1 16  1  0
  1 17  1  0
  3 18  1  0
  3 19  1  0
  4 20  1  0
  5 21  1  0
  5 22  1  0
  6 23  1  0
  6 24  1  0
  8 25  1  0
  9 26  1  0
 11 27  1  0
 12 28  1  0
 13 29  1  0
 14 30  1  0
M  CHG  1   3   1
M  END
>  <UniqueID>  (23) 
22

>  <SMILES>  (23) 
NC(=[NH2+])NCCc1c[nH]c2ccccc12

>  <Energy>  (23) 
55.58845945067038

>  <Genealogy>  (23) 
NC(=[NH2+])NCCc1c[nH]c2ccccc12 (protonated)
NC(=[NH2+])NCCc1c[nH]c2ccccc12 (3D coordinates assigned)
NC(=[NH2+])NCCc1c[nH]c2ccccc12 (optimized conformer: 55.58845945067038 kcal/mol)

$$$$
untitled_line_23
     RDKit          3D

 94 95  0  0  0  0  0  0  0  0999 V2000
   -1.9594   -0.2036    0.7456 C   0  0  0  0  0  0  0  0  0  0  0  0
   -3.2090   -1.0777    0.8297 C   0  0  0  0  0  0  0  0  0  0  0  0
   -3.1802   -2.0515    2.0202 C   0  0  0  0  0  0  0  0  0  0  0  0
   -2.0163   -3.0576    1.9978 C   0  0  0  0  0  0  0  0  0  0  0  0
   -2.0650   -4.0016    0.7814 C   0  0  0  0  0  0  0  0  0  0  0  0
   -1.0851   -5.1778    0.9172 C   0  0  0  0  0  0  0  0  0  0  0  0
    0.3764   -4.7436    0.7148 C   0  0  0  0  0  0  0  0  0  0  0  0
    1.3804   -5.8952    0.9015 C   0  0  0  0  0  0  0  0  0  0  0  0
    1.3798   -6.5498    2.2999 C   0  0  0  0  0  0  0  0  0  0  0  0
    1.5020   -5.5711    3.4826 C   0  0  0  0  0  0  0  0  0  0  0  0
    2.8253   -4.7880    3.4745 C   0  0  0  0  0  0  0  0  0  0  0  0
    3.0295   -3.9572    4.7549 C   0  0  0  0  0  0  0  0  0  0  0  0
    1.9770   -2.8534    4.9975 C   0  0  0  0  0  0  0  0  0  0  0  0
    1.7993   -1.8452    3.8471 C   0  0  0  0  0  0  0  0  0  0  0  0
    3.0572   -0.9983    3.5908 C   0  0  0  0  0  0  0  0  0  0  0  0
    2.9199   -0.1009    2.3516 C   0  0  0  0  0  0  0  0  0  0  0  0
    1.8569    0.9985    2.5219 C   0  0  0  0  0  0  0  0  0  0  0  0
    1.9462    2.0765    1.4294 C   0  0  0  0  0  0  0  0  0  0  0  0
    1.5954    1.5340    0.0363 C   0  0  0  0  0  0  0  0  0  0  0  0
    1.5575    2.6621   -1.0045 C   0  0  0  0  0  0  0  0  0  0  0  0
    1.3888    2.1410   -2.4439 C   0  0  0  0  0  0  0  0  0  0  0  0
    0.0939    1.3485   -2.6996 C   0  0  0  0  0  0  0  0  0  0  0  0
   -1.1762    2.1839   -2.4545 C   0  0  0  0  0  0  0  0  0  0  0  0
   -2.3952    1.4683   -2.8833 N   0  0  0  0  0  4  0  0  0  0  0  0
   -2.6863    1.6341   -4.3256 C   0  0  0  0  0  0  0  0  0  0  0  0
   -3.7347    2.7279   -4.6038 C   0  0  0  0  0  0  0  0  0  0  0  0
   -3.2158    4.1010   -4.2923 C   0  0  0  0  0  0  0  0  0  0  0  0
   -2.3302    4.8408   -5.0709 C   0  0  0  0  0  0  0  0  0  0  0  0
   -1.9952    5.9906   -4.4427 N   0  0  0  0  0  0  0  0  0  0  0  0
   -2.6540    5.9794   -3.2710 C   0  0  0  0  0  0  0  0  0  0  0  0
   -2.6006    6.9427   -2.2645 C   0  0  0  0  0  0  0  0  0  0  0  0
   -3.3512    6.7163   -1.0967 C   0  0  0  0  0  0  0  0  0  0  0  0
   -4.1279    5.5445   -0.9617 C   0  0  0  0  0  0  0  0  0  0  0  0
   -4.1618    4.5886   -1.9929 C   0  0  0  0  0  0  0  0  0  0  0  0
   -3.4091    4.8412   -3.1407 C   0  0  0  0  0  0  0  0  0  0  0  0
   -2.1236    0.5961   -0.0047 H   0  0  0  0  0  0  0  0  0  0  0  0
   -1.7449    0.2714    1.7262 H   0  0  0  0  0  0  0  0  0  0  0  0
   -1.0843   -0.8049    0.4227 H   0  0  0  0  0  0  0  0  0  0  0  0
   -4.0915   -0.4126    0.9493 H   0  0  0  0  0  0  0  0  0  0  0  0
   -3.3444   -1.6298   -0.1243 H   0  0  0  0  0  0  0  0  0  0  0  0
   -4.1413   -2.6098    2.0466 H   0  0  0  0  0  0  0  0  0  0  0  0
   -3.1214   -1.4646    2.9629 H   0  0  0  0  0  0  0  0  0  0  0  0
   -1.0510   -2.5118    2.0301 H   0  0  0  0  0  0  0  0  0  0  0  0
   -2.0787   -3.6616    2.9298 H   0  0  0  0  0  0  0  0  0  0  0  0
   -1.8412   -3.4400   -0.1510 H   0  0  0  0  0  0  0  0  0  0  0  0
   -3.0914   -4.4192    0.6901 H   0  0  0  0  0  0  0  0  0  0  0  0
   -1.3370   -5.9391    0.1472 H   0  0  0  0  0  0  0  0  0  0  0  0
   -1.2260   -5.6498    1.9118 H   0  0  0  0  0  0  0  0  0  0  0  0
    0.4898   -4.3533   -0.3200 H   0  0  0  0  0  0  0  0  0  0  0  0
    0.6393   -3.9133    1.3955 H   0  0  0  0  0  0  0  0  0  0  0  0
    1.1675   -6.6820    0.1451 H   0  0  0  0  0  0  0  0  0  0  0  0
    2.4006   -5.5132    0.6821 H   0  0  0  0  0  0  0  0  0  0  0  0
    0.4504   -7.1448    2.4251 H   0  0  0  0  0  0  0  0  0  0  0  0
    2.2199   -7.2765    2.3468 H   0  0  0  0  0  0  0  0  0  0  0  0
    1.4442   -6.1647    4.4211 H   0  0  0  0  0  0  0  0  0  0  0  0
    0.6373   -4.8766    3.4861 H   0  0  0  0  0  0  0  0  0  0  0  0
    3.6665   -5.5115    3.4018 H   0  0  0  0  0  0  0  0  0  0  0  0
    2.8884   -4.1307    2.5836 H   0  0  0  0  0  0  0  0  0  0  0  0
    3.0208   -4.6436    5.6296 H   0  0  0  0  0  0  0  0  0  0  0  0
    4.0432   -3.5055    4.7312 H   0  0  0  0  0  0  0  0  0  0  0  0
    0.9948   -3.3275    5.2080 H   0  0  0  0  0  0  0  0  0  0  0  0
    2.2587   -2.2976    5.9183 H   0  0  0  0  0  0  0  0  0  0  0  0
    0.9626   -1.1692    4.1258 H   0  0  0  0  0  0  0  0  0  0  0  0
    1.4921   -2.3682    2.9209 H   0  0  0  0  0  0  0  0  0  0  0  0
    3.2831   -0.3773    4.4852 H   0  0  0  0  0  0  0  0  0  0  0  0
    3.9264   -1.6648    3.4128 H   0  0  0  0  0  0  0  0  0  0  0  0
    2.6745   -0.7340    1.4720 H   0  0  0  0  0  0  0  0  0  0  0  0
    3.9077    0.3735    2.1630 H   0  0  0  0  0  0  0  0  0  0  0  0
    0.8400    0.5500    2.5116 H   0  0  0  0  0  0  0  0  0  0  0  0
    2.0000    1.4957    3.5061 H   0  0  0  0  0  0  0  0  0  0  0  0
    1.2336    2.8900    1.6895 H   0  0  0  0  0  0  0  0  0  0  0  0
    2.9685    2.5142    1.4182 H   0  0  0  0  0  0  0  0  0  0  0  0
    0.6019    1.0434    0.0864 H   0  0  0  0  0  0  0  0  0  0  0  0
    2.3529    0.7832   -0.2748 H   0  0  0  0  0  0  0  0  0  0  0  0
    2.5166    3.2235   -0.9603 H   0  0  0  0  0  0  0  0  0  0  0  0
    0.7485    3.3824   -0.7581 H   0  0  0  0  0  0  0  0  0  0  0  0
    2.2555    1.4913   -2.6944 H   0  0  0  0  0  0  0  0  0  0  0  0
    1.4227    3.0072   -3.1401 H   0  0  0  0  0  0  0  0  0  0  0  0
    0.1107    1.0094   -3.7570 H   0  0  0  0  0  0  0  0  0  0  0  0
    0.0727    0.4332   -2.0711 H   0  0  0  0  0  0  0  0  0  0  0  0
   -1.2550    2.4016   -1.3675 H   0  0  0  0  0  0  0  0  0  0  0  0
   -1.0821    3.1624   -2.9708 H   0  0  0  0  0  0  0  0  0  0  0  0
   -3.2030    1.8015   -2.3082 H   0  0  0  0  0  0  0  0  0  0  0  0
   -2.2922    0.4478   -2.6705 H   0  0  0  0  0  0  0  0  0  0  0  0
   -1.7642    1.8413   -4.9137 H   0  0  0  0  0  0  0  0  0  0  0  0
   -3.0962    0.6786   -4.7229 H   0  0  0  0  0  0  0  0  0  0  0  0
   -4.6638    2.5248   -4.0300 H   0  0  0  0  0  0  0  0  0  0  0  0
   -4.0052    2.6932   -5.6811 H   0  0  0  0  0  0  0  0  0  0  0  0
   -1.9358    4.5415   -6.0331 H   0  0  0  0  0  0  0  0  0  0  0  0
   -1.3398    6.7256   -4.7912 H   0  0  0  0  0  0  0  0  0  0  0  0
   -1.9966    7.8342   -2.3743 H   0  0  0  0  0  0  0  0  0  0  0  0
   -3.3308    7.4431   -0.2950 H   0  0  0  0  0  0  0  0  0  0  0  0
   -4.7000    5.3800   -0.0580 H   0  0  0  0  0  0  0  0  0  0  0  0
   -4.7545    3.6898   -1.8911 H   0  0  0  0  0  0  0  0  0  0  0  0
  1  2  1  0
  2  3  1  0
  3  4  1  0
  4  5  1  0
  5  6  1  0
  6  7  1  0
  7  8  1  0
  8  9  1  0
  9 10  1  0
 10 11  1  0
 11 12  1  0
 12 13  1  0
 13 14  1  0
 14 15  1  0
 15 16  1  0
 16 17  1  0
 17 18  1  0
 18 19  1  0
 19 20  1  0
 20 21  1  0
 21 22  1  0
 22 23  1  0
 23 24  1  0
 24 25  1  0
 25 26  1  0
 26 27  1  0
 27 28  2  0
 28 29  1  0
 29 30  1  0
 30 31  2  0
 31 32  1  0
 32 33  2  0
 33 34  1  0
 34 35  2  0
 35 27  1  0
 35 30  1  0
  1 36  1  0
  1 37  1  0
  1 38  1  0
  2 39  1  0
  2 40  1  0
  3 41  1  0
  3 42  1  0
  4 43  1  0
  4 44  1  0
  5 45  1  0
  5 46  1  0
  6 47  1  0
  6 48  1  0
  7 49  1  0
  7 50  1  0
  8 51  1  0
  8 52  1  0
  9 53  1  0
  9 54  1  0
 10 55  1  0
 10 56  1  0
 11 57  1  0
 11 58  1  0
 12 59  1  0
 12 60  1  0
 13 61  1  0
 13 62  1  0
 14 63  1  0
 14 64  1  0
 15 65  1  0
 15 66  1  0
 16 67  1  0
 16 68  1  0
 17 69  1  0
 17 70  1  0
 18 71  1  0
 18 72  1  0
 19 73  1  0
 19 74  1  0
 20 75  1  0
 20 76  1  0
 21 77  1  0
 21 78  1  0
 22 79  1  0
 22 80  1  0
 23 81  1  0
 23 82  1  0
 24 83  1  0
 24 84  1  0
 25 85  1  0
 25 86  1  0
 26 87  1  0
 26 88  1  0
 28 89  1  0
 29 90  1  0
 31 91  1  0
 32 92  1  0
 33 93  1  0
 34 94  1  0
M  CHG  1  24   1
M  END
>  <UniqueID>  (24) 
23

>  <SMILES>  (24) 
CCCCCCCCCCCCCCCCCCCCCCC[NH2+]CCc1c[nH]c2ccccc12

>  <Energy>  (24) 
85.19557953975509

>  <Genealogy>  (24) 
CCCCCCCCCCCCCCCCCCCCCCC[NH2+]CCc1c[nH]c2ccccc12 (protonated)
CCCCCCCCCCCCCCCCCCCCCCC[NH2+]CCc1c[nH]c2ccccc12 (3D coordinates assigned)
CCCCCCCCCCCCCCCCCCCCCCC[NH2+]CCc1c[nH]c2ccccc12 (optimized conformer: 85.19557953975509 kcal/mol)

$$$$
untitled_line_24
     RDKit          3D

 54 58  0  0  0  0  0  0  0  0999 V2000
   -0.0862   -1.6844    2.8358 O   0  0  0  0  0  0  0  0  0  0  0  0
   -0.3295   -2.3982    1.8241 C   0  0  0  0  0  0  0  0  0  0  0  0
    0.4566   -2.2571    0.6367 N   0  0  0  0  0  0  0  0  0  0  0  0
    1.3830   -1.1365    0.4543 C   0  0  2  0  0  0  0  0  0  0  0  0
    1.6640   -0.9109   -1.0424 C   0  0  0  0  0  0  0  0  0  0  0  0
    2.4029    0.3763   -1.2717 C   0  0  0  0  0  0  0  0  0  0  0  0
    3.7747    0.5299   -1.4491 C   0  0  0  0  0  0  0  0  0  0  0  0
    4.0945    1.8417   -1.5376 N   0  0  0  0  0  0  0  0  0  0  0  0
    2.9386    2.5161   -1.4049 C   0  0  0  0  0  0  0  0  0  0  0  0
    2.7608    3.8993   -1.4019 C   0  0  0  0  0  0  0  0  0  0  0  0
    1.4558    4.3942   -1.2193 C   0  0  0  0  0  0  0  0  0  0  0  0
    0.3710    3.5061   -1.0430 C   0  0  0  0  0  0  0  0  0  0  0  0
    0.5813    2.1155   -1.0501 C   0  0  0  0  0  0  0  0  0  0  0  0
    1.8847    1.6555   -1.2368 C   0  0  0  0  0  0  0  0  0  0  0  0
    2.6580   -1.4006    1.2046 C   0  0  0  0  0  0  0  0  0  0  0  0
    3.2458   -2.5097    1.0897 O   0  0  0  0  0  0  0  0  0  0  0  0
    3.2099   -0.4023    2.0013 O   0  0  0  0  0  0  0  0  0  0  0  0
   -1.3802   -3.3199    1.8418 O   0  0  0  0  0  0  0  0  0  0  0  0
   -2.4638   -3.2633    2.7724 C   0  0  0  0  0  0  0  0  0  0  0  0
   -3.5662   -2.2994    2.2933 C   0  0  0  0  0  0  0  0  0  0  0  0
   -3.9362   -2.5478    0.8519 C   0  0  0  0  0  0  0  0  0  0  0  0
   -4.4793   -3.7071    0.2922 C   0  0  0  0  0  0  0  0  0  0  0  0
   -4.7304   -3.7339   -1.0900 C   0  0  0  0  0  0  0  0  0  0  0  0
   -4.4409   -2.6104   -1.8893 C   0  0  0  0  0  0  0  0  0  0  0  0
   -3.9012   -1.4494   -1.3128 C   0  0  0  0  0  0  0  0  0  0  0  0
   -3.6600   -1.4466    0.0614 C   0  0  0  0  0  0  0  0  0  0  0  0
   -3.1317   -0.3993    0.9086 C   0  0  0  0  0  0  0  0  0  0  0  0
   -2.7254    0.8946    0.5825 C   0  0  0  0  0  0  0  0  0  0  0  0
   -2.2640    1.7255    1.6155 C   0  0  0  0  0  0  0  0  0  0  0  0
   -2.2336    1.2589    2.9444 C   0  0  0  0  0  0  0  0  0  0  0  0
   -2.6565   -0.0457    3.2501 C   0  0  0  0  0  0  0  0  0  0  0  0
   -3.0901   -0.8706    2.2089 C   0  0  0  0  0  0  0  0  0  0  0  0
    0.2744   -2.9178   -0.1522 H   0  0  0  0  0  0  0  0  0  0  0  0
    0.9057   -0.2155    0.8594 H   0  0  0  0  0  0  0  0  0  0  0  0
    2.2475   -1.7612   -1.4595 H   0  0  0  0  0  0  0  0  0  0  0  0
    0.7003   -0.8659   -1.5954 H   0  0  0  0  0  0  0  0  0  0  0  0
    4.4993   -0.2729   -1.4931 H   0  0  0  0  0  0  0  0  0  0  0  0
    5.0495    2.2450   -1.6641 H   0  0  0  0  0  0  0  0  0  0  0  0
    3.5990    4.5718   -1.5309 H   0  0  0  0  0  0  0  0  0  0  0  0
    1.2827    5.4626   -1.2108 H   0  0  0  0  0  0  0  0  0  0  0  0
   -0.6281    3.8973   -0.9000 H   0  0  0  0  0  0  0  0  0  0  0  0
   -0.2424    1.4281   -0.9148 H   0  0  0  0  0  0  0  0  0  0  0  0
    4.0766   -0.5571    2.5020 H   0  0  0  0  0  0  0  0  0  0  0  0
   -2.1042   -2.9780    3.7849 H   0  0  0  0  0  0  0  0  0  0  0  0
   -2.9009   -4.2805    2.8569 H   0  0  0  0  0  0  0  0  0  0  0  0
   -4.4644   -2.3685    2.9442 H   0  0  0  0  0  0  0  0  0  0  0  0
   -4.6975   -4.5694    0.9085 H   0  0  0  0  0  0  0  0  0  0  0  0
   -5.1473   -4.6238   -1.5435 H   0  0  0  0  0  0  0  0  0  0  0  0
   -4.6375   -2.6415   -2.9533 H   0  0  0  0  0  0  0  0  0  0  0  0
   -3.6809   -0.5824   -1.9214 H   0  0  0  0  0  0  0  0  0  0  0  0
   -2.7644    1.2525   -0.4378 H   0  0  0  0  0  0  0  0  0  0  0  0
   -1.9360    2.7319    1.3901 H   0  0  0  0  0  0  0  0  0  0  0  0
   -1.8825    1.9091    3.7350 H   0  0  0  0  0  0  0  0  0  0  0  0
   -2.6327   -0.4078    4.2696 H   0  0  0  0  0  0  0  0  0  0  0  0
  1  2  2  0
  2  3  1  0
  3  4  1  0
  4  5  1  0
  5  6  1  0
  6  7  2  0
  7  8  1  0
  8  9  1  0
  9 10  2  0
 10 11  1  0
 11 12  2  0
 12 13  1  0
 13 14  2  0
  4 15  1  0
 15 16  2  0
 15 17  1  0
  2 18  1  0
 18 19  1  0
 19 20  1  0
 20 21  1  0
 21 22  2  0
 22 23  1  0
 23 24  2  0
 24 25  1  0
 25 26  2  0
 26 27  1  0
 27 28  2  0
 28 29  1  0
 29 30  2  0
 30 31  1  0
 31 32  2  0
 14  6  1  0
 32 20  1  0
 14  9  1  0
 26 21  1  0
 32 27  1  0
  3 33  1  0
  4 34  1  1
  5 35  1  0
  5 36  1  0
  7 37  1  0
  8 38  1  0
 10 39  1  0
 11 40  1  0
 12 41  1  0
 13 42  1  0
 17 43  1  0
 19 44  1  0
 19 45  1  0
 20 46  1  0
 22 47  1  0
 23 48  1  0
 24 49  1  0
 25 50  1  0
 28 51  1  0
 29 52  1  0
 30 53  1  0
 31 54  1  0
M  END
>  <UniqueID>  (25) 
24

>  <SMILES>  (25) 
O=C(N[C@H](Cc1c[nH]c2ccccc12)C(=O)O)OCC1c2ccccc2-c2ccccc21

>  <Energy>  (25) 
105.27196667581985

>  <Genealogy>  (25) 
O=C(N[C@H](Cc1c[nH]c2ccccc12)C(=O)O)OCC1c2ccccc2-c2ccccc21 (3D coordinates assigned)
O=C(N[C@H](Cc1c[nH]c2ccccc12)C(=O)O)OCC1c2ccccc2-c2ccccc21 (nonaromatic ring conformer: 105.27196667581985 kcal/mol)

$$$$
untitled_line_25
     RDKit          3D

 25 26  0  0  0  0  0  0  0  0999 V2000
   -4.5533    1.3688    0.5933 F   0  0  0  0  0  0  0  0  0  0  0  0
   -3.4774    2.1893    0.3082 C   0  0  0  0  0  0  0  0  0  0  0  0
   -3.0414    2.7819    1.4800 F   0  0  0  0  0  0  0  0  0  0  0  0
   -2.3549    1.3605   -0.3149 C   0  0  0  0  0  0  0  0  0  0  0  0
   -1.1694    2.2398   -0.7265 C   0  0  0  0  0  0  0  0  0  0  0  0
   -0.0874    1.4068   -1.3457 C   0  0  0  0  0  0  0  0  0  0  0  0
    0.0863    1.1475   -2.7019 C   0  0  0  0  0  0  0  0  0  0  0  0
    1.1217    0.2976   -2.8909 N   0  0  0  0  0  0  0  0  0  0  0  0
    1.5938    0.0086   -1.6656 C   0  0  0  0  0  0  0  0  0  0  0  0
    2.6494   -0.8445   -1.3460 C   0  0  0  0  0  0  0  0  0  0  0  0
    2.9644   -1.0198    0.0140 C   0  0  0  0  0  0  0  0  0  0  0  0
    2.2234   -0.3493    1.0127 C   0  0  0  0  0  0  0  0  0  0  0  0
    1.1617    0.5041    0.6607 C   0  0  0  0  0  0  0  0  0  0  0  0
    0.8773    0.6622   -0.6959 C   0  0  0  0  0  0  0  0  0  0  0  0
   -3.8094    2.9786   -0.3996 H   0  0  0  0  0  0  0  0  0  0  0  0
   -2.0188    0.5952    0.4189 H   0  0  0  0  0  0  0  0  0  0  0  0
   -2.7520    0.8346   -1.2111 H   0  0  0  0  0  0  0  0  0  0  0  0
   -1.5056    3.0059   -1.4588 H   0  0  0  0  0  0  0  0  0  0  0  0
   -0.7602    2.7695    0.1606 H   0  0  0  0  0  0  0  0  0  0  0  0
   -0.5188    1.5498   -3.5039 H   0  0  0  0  0  0  0  0  0  0  0  0
    1.4705   -0.0692   -3.8043 H   0  0  0  0  0  0  0  0  0  0  0  0
    3.2073   -1.3585   -2.1179 H   0  0  0  0  0  0  0  0  0  0  0  0
    3.7778   -1.6751    0.2969 H   0  0  0  0  0  0  0  0  0  0  0  0
    2.4727   -0.4944    2.0558 H   0  0  0  0  0  0  0  0  0  0  0  0
    0.5871    1.0174    1.4207 H   0  0  0  0  0  0  0  0  0  0  0  0
  1  2  1  0
  2  3  1  0
  2  4  1  0
  4  5  1  0
  5  6  1  0
  6  7  2  0
  7  8  1  0
  8  9  1  0
  9 10  2  0
 10 11  1  0
 11 12  2  0
 12 13  1  0
 13 14  2  0
 14  6  1  0
 14  9  1  0
  2 15  1  0
  4 16  1  0
  4 17  1  0
  5 18  1  0
  5 19  1  0
  7 20  1  0
  8 21  1  0
 10 22  1  0
 11 23  1  0
 12 24  1  0
 13 25  1  0
M  END
>  <UniqueID>  (26) 
25

>  <SMILES>  (26) 
FC(F)CCc1c[nH]c2ccccc12

>  <Energy>  (26) 
52.30242954677275

>  <Genealogy>  (26) 
FC(F)CCc1c[nH]c2ccccc12 (3D coordinates assigned)
FC(F)CCc1c[nH]c2ccccc12 (optimized conformer: 52.30242954677275 kcal/mol)

$$$$
untitled_line_26
     RDKit          3D

 46 48  0  0  0  0  0  0  0  0999 V2000
    4.8437   -1.1368   -3.3624 C   0  0  0  0  0  0  0  0  0  0  0  0
    3.6294   -1.8613   -3.1952 O   0  0  0  0  0  0  0  0  0  0  0  0
    2.3539   -1.2773   -3.1648 C   0  0  0  0  0  0  0  0  0  0  0  0
    1.2474   -2.1146   -2.9896 C   0  0  0  0  0  0  0  0  0  0  0  0
   -0.0515   -1.5877   -2.9525 C   0  0  0  0  0  0  0  0  0  0  0  0
   -1.2339   -2.5003   -2.7247 C   0  0  0  0  0  0  0  0  0  0  0  0
   -1.3477   -2.9108   -1.3144 N   0  0  0  0  0  4  0  0  0  0  0  0
   -1.7613   -1.7944   -0.4485 C   0  0  0  0  0  0  0  0  0  0  0  0
   -1.9204   -2.2614    1.0029 C   0  0  0  0  0  0  0  0  0  0  0  0
   -2.2987   -1.1108    1.8866 C   0  0  0  0  0  0  0  0  0  0  0  0
   -3.5845   -0.7552    2.2826 C   0  0  0  0  0  0  0  0  0  0  0  0
   -3.5552    0.3837    3.0122 N   0  0  0  0  0  0  0  0  0  0  0  0
   -2.2645    0.7563    3.0683 C   0  0  0  0  0  0  0  0  0  0  0  0
   -1.7369    1.8859    3.6925 C   0  0  0  0  0  0  0  0  0  0  0  0
   -0.3486    2.0975    3.6049 C   0  0  0  0  0  0  0  0  0  0  0  0
    0.4712    1.1881    2.9000 C   0  0  0  0  0  0  0  0  0  0  0  0
   -0.0892    0.0574    2.2782 C   0  0  0  0  0  0  0  0  0  0  0  0
   -1.4676   -0.1284    2.3879 C   0  0  0  0  0  0  0  0  0  0  0  0
   -0.2377   -0.2039   -3.0862 C   0  0  0  0  0  0  0  0  0  0  0  0
    0.8555    0.6509   -3.2600 C   0  0  0  0  0  0  0  0  0  0  0  0
    0.6084    2.0265   -3.3845 O   0  0  0  0  0  0  0  0  0  0  0  0
    1.6192    3.0144   -3.5579 C   0  0  0  0  0  0  0  0  0  0  0  0
    2.1549    0.1100   -3.3012 C   0  0  0  0  0  0  0  0  0  0  0  0
    4.9726   -0.4106   -2.5321 H   0  0  0  0  0  0  0  0  0  0  0  0
    5.6950   -1.8478   -3.3474 H   0  0  0  0  0  0  0  0  0  0  0  0
    4.8408   -0.6064   -4.3381 H   0  0  0  0  0  0  0  0  0  0  0  0
    1.4016   -3.1812   -2.8781 H   0  0  0  0  0  0  0  0  0  0  0  0
   -1.1071   -3.4067   -3.3578 H   0  0  0  0  0  0  0  0  0  0  0  0
   -2.1776   -2.0168   -3.0649 H   0  0  0  0  0  0  0  0  0  0  0  0
   -2.0674   -3.6693   -1.2558 H   0  0  0  0  0  0  0  0  0  0  0  0
   -0.4330   -3.2994   -0.9837 H   0  0  0  0  0  0  0  0  0  0  0  0
   -2.7310   -1.3762   -0.8023 H   0  0  0  0  0  0  0  0  0  0  0  0
   -0.9967   -0.9868   -0.4780 H   0  0  0  0  0  0  0  0  0  0  0  0
   -2.7055   -3.0461    1.0609 H   0  0  0  0  0  0  0  0  0  0  0  0
   -0.9665   -2.7017    1.3650 H   0  0  0  0  0  0  0  0  0  0  0  0
   -4.4914   -1.2930    2.0388 H   0  0  0  0  0  0  0  0  0  0  0  0
   -4.3737    0.8791    3.4305 H   0  0  0  0  0  0  0  0  0  0  0  0
   -2.3740    2.5808    4.2242 H   0  0  0  0  0  0  0  0  0  0  0  0
    0.0935    2.9649    4.0776 H   0  0  0  0  0  0  0  0  0  0  0  0
    1.5372    1.3632    2.8359 H   0  0  0  0  0  0  0  0  0  0  0  0
    0.5320   -0.6408    1.7324 H   0  0  0  0  0  0  0  0  0  0  0  0
   -1.2358    0.2154   -3.0458 H   0  0  0  0  0  0  0  0  0  0  0  0
    2.3114    3.0088   -2.6895 H   0  0  0  0  0  0  0  0  0  0  0  0
    1.1418    4.0133   -3.6249 H   0  0  0  0  0  0  0  0  0  0  0  0
    2.1810    2.8253   -4.4969 H   0  0  0  0  0  0  0  0  0  0  0  0
    3.0040    0.7633   -3.4356 H   0  0  0  0  0  0  0  0  0  0  0  0
  1  2  1  0
  2  3  1  0
  3  4  2  0
  4  5  1  0
  5  6  1  0
  6  7  1  0
  7  8  1  0
  8  9  1  0
  9 10  1  0
 10 11  2  0
 11 12  1  0
 12 13  1  0
 13 14  2  0
 14 15  1  0
 15 16  2  0
 16 17  1  0
 17 18  2  0
  5 19  2  0
 19 20  1  0
 20 21  1  0
 21 22  1  0
 20 23  2  0
 23  3  1  0
 18 10  1  0
 18 13  1  0
  1 24  1  0
  1 25  1  0
  1 26  1  0
  4 27  1  0
  6 28  1  0
  6 29  1  0
  7 30  1  0
  7 31  1  0
  8 32  1  0
  8 33  1  0
  9 34  1  0
  9 35  1  0
 11 36  1  0
 12 37  1  0
 14 38  1  0
 15 39  1  0
 16 40  1  0
 17 41  1  0
 19 42  1  0
 22 43  1  0
 22 44  1  0
 22 45  1  0
 23 46  1  0
M  CHG  1   7   1
M  END
>  <UniqueID>  (27) 
26

>  <SMILES>  (27) 
COc1cc(C[NH2+]CCc2c[nH]c3ccccc23)cc(OC)c1

>  <Energy>  (27) 
75.2833104141203

>  <Genealogy>  (27) 
COc1cc(C[NH2+]CCc2c[nH]c3ccccc23)cc(OC)c1 (protonated)
COc1cc(C[NH2+]CCc2c[nH]c3ccccc23)cc(OC)c1 (3D coordinates assigned)
COc1cc(C[NH2+]CCc2c[nH]c3ccccc23)cc(OC)c1 (optimized conformer: 75.2833104141203 kcal/mol)

$$$$
untitled_line_27
     RDKit          3D

 73 74  0  0  0  0  0  0  0  0999 V2000
   -1.7162    4.8849   -7.5120 C   0  0  0  0  0  0  0  0  0  0  0  0
   -0.2501    4.5024   -7.2982 C   0  0  0  0  0  0  0  0  0  0  0  0
    0.1296    4.4446   -5.8099 C   0  0  0  0  0  0  0  0  0  0  0  0
   -0.4469    3.2031   -5.1069 C   0  0  0  0  0  0  0  0  0  0  0  0
    0.0827    3.0364   -3.6717 C   0  0  0  0  0  0  0  0  0  0  0  0
   -0.3111    4.1695   -2.7028 C   0  0  0  0  0  0  0  0  0  0  0  0
   -1.8258    4.4331   -2.5776 C   0  0  0  0  0  0  0  0  0  0  0  0
   -2.6599    3.2155   -2.1397 C   0  0  0  0  0  0  0  0  0  0  0  0
   -2.3894    2.8085   -0.6836 C   0  0  0  0  0  0  0  0  0  0  0  0
   -3.1921    1.5586   -0.3029 C   0  0  0  0  0  0  0  0  0  0  0  0
   -2.9884    1.2090    1.1786 C   0  0  0  0  0  0  0  0  0  0  0  0
   -3.7909   -0.0287    1.6203 C   0  0  0  0  0  0  0  0  0  0  0  0
   -3.3966   -1.3470    0.9221 C   0  0  0  0  0  0  0  0  0  0  0  0
   -1.9108   -1.7346    1.0437 C   0  0  0  0  0  0  0  0  0  0  0  0
   -1.4667   -1.9406    2.4986 C   0  0  0  0  0  0  0  0  0  0  0  0
   -0.0364   -2.4956    2.5704 C   0  0  0  0  0  0  0  0  0  0  0  0
    0.3906   -2.6471    3.9714 N   0  0  0  0  0  4  0  0  0  0  0  0
    1.6842   -3.3434    4.0919 C   0  0  0  0  0  0  0  0  0  0  0  0
    2.8674   -2.4677    3.6470 C   0  0  0  0  0  0  0  0  0  0  0  0
    4.1705   -3.1162    4.0130 C   0  0  0  0  0  0  0  0  0  0  0  0
    4.9426   -2.8457    5.1396 C   0  0  0  0  0  0  0  0  0  0  0  0
    6.0105   -3.6759    5.1895 N   0  0  0  0  0  0  0  0  0  0  0  0
    5.9126   -4.4746    4.1121 C   0  0  0  0  0  0  0  0  0  0  0  0
    6.7741   -5.5067    3.7453 C   0  0  0  0  0  0  0  0  0  0  0  0
    6.4686   -6.2353    2.5816 C   0  0  0  0  0  0  0  0  0  0  0  0
    5.3197   -5.9219    1.8217 C   0  0  0  0  0  0  0  0  0  0  0  0
    4.4662   -4.8753    2.2164 C   0  0  0  0  0  0  0  0  0  0  0  0
    4.7990   -4.1670    3.3717 C   0  0  0  0  0  0  0  0  0  0  0  0
   -1.9120    5.0337   -8.5969 H   0  0  0  0  0  0  0  0  0  0  0  0
   -2.3918    4.0849   -7.1404 H   0  0  0  0  0  0  0  0  0  0  0  0
   -1.9478    5.8334   -6.9821 H   0  0  0  0  0  0  0  0  0  0  0  0
    0.3873    5.2673   -7.7947 H   0  0  0  0  0  0  0  0  0  0  0  0
   -0.0403    3.5275   -7.7905 H   0  0  0  0  0  0  0  0  0  0  0  0
   -0.2273    5.3697   -5.3096 H   0  0  0  0  0  0  0  0  0  0  0  0
    1.2378    4.4246   -5.7288 H   0  0  0  0  0  0  0  0  0  0  0  0
   -0.1632    2.2983   -5.6845 H   0  0  0  0  0  0  0  0  0  0  0  0
   -1.5550    3.2437   -5.0978 H   0  0  0  0  0  0  0  0  0  0  0  0
   -0.2692    2.0654   -3.2639 H   0  0  0  0  0  0  0  0  0  0  0  0
    1.1911    2.9711   -3.7050 H   0  0  0  0  0  0  0  0  0  0  0  0
    0.1827    5.1109   -3.0220 H   0  0  0  0  0  0  0  0  0  0  0  0
    0.1090    3.9370   -1.7011 H   0  0  0  0  0  0  0  0  0  0  0  0
   -2.2149    4.8078   -3.5483 H   0  0  0  0  0  0  0  0  0  0  0  0
   -1.9802    5.2572   -1.8476 H   0  0  0  0  0  0  0  0  0  0  0  0
   -3.7357    3.4847   -2.2350 H   0  0  0  0  0  0  0  0  0  0  0  0
   -2.4841    2.3573   -2.8222 H   0  0  0  0  0  0  0  0  0  0  0  0
   -1.3102    2.5854   -0.5452 H   0  0  0  0  0  0  0  0  0  0  0  0
   -2.6690    3.6512   -0.0127 H   0  0  0  0  0  0  0  0  0  0  0  0
   -4.2739    1.7331   -0.4932 H   0  0  0  0  0  0  0  0  0  0  0  0
   -2.8484    0.7159   -0.9410 H   0  0  0  0  0  0  0  0  0  0  0  0
   -1.9094    1.0665    1.3987 H   0  0  0  0  0  0  0  0  0  0  0  0
   -3.3321    2.0709    1.7926 H   0  0  0  0  0  0  0  0  0  0  0  0
   -4.8712    0.1582    1.4320 H   0  0  0  0  0  0  0  0  0  0  0  0
   -3.6830   -0.1497    2.7194 H   0  0  0  0  0  0  0  0  0  0  0  0
   -3.6661   -1.2917   -0.1544 H   0  0  0  0  0  0  0  0  0  0  0  0
   -4.0129   -2.1657    1.3536 H   0  0  0  0  0  0  0  0  0  0  0  0
   -1.7669   -2.6846    0.4865 H   0  0  0  0  0  0  0  0  0  0  0  0
   -1.2726   -0.9717    0.5540 H   0  0  0  0  0  0  0  0  0  0  0  0
   -1.4974   -0.9711    3.0387 H   0  0  0  0  0  0  0  0  0  0  0  0
   -2.1611   -2.6489    3.0000 H   0  0  0  0  0  0  0  0  0  0  0  0
    0.6423   -1.7911    2.0398 H   0  0  0  0  0  0  0  0  0  0  0  0
   -0.0034   -3.4805    2.0506 H   0  0  0  0  0  0  0  0  0  0  0  0
   -0.3236   -3.2168    4.4828 H   0  0  0  0  0  0  0  0  0  0  0  0
    0.4496   -1.7061    4.4282 H   0  0  0  0  0  0  0  0  0  0  0  0
    1.6739   -4.2896    3.5061 H   0  0  0  0  0  0  0  0  0  0  0  0
    1.8349   -3.6247    5.1582 H   0  0  0  0  0  0  0  0  0  0  0  0
    2.8419   -2.3149    2.5483 H   0  0  0  0  0  0  0  0  0  0  0  0
    2.8068   -1.4719    4.1347 H   0  0  0  0  0  0  0  0  0  0  0  0
    4.7278   -2.0924    5.8880 H   0  0  0  0  0  0  0  0  0  0  0  0
    6.7519   -3.6961    5.9248 H   0  0  0  0  0  0  0  0  0  0  0  0
    7.6471   -5.7433    4.3389 H   0  0  0  0  0  0  0  0  0  0  0  0
    7.1177   -7.0416    2.2671 H   0  0  0  0  0  0  0  0  0  0  0  0
    5.0955   -6.4908    0.9296 H   0  0  0  0  0  0  0  0  0  0  0  0
    3.5827   -4.6304    1.6394 H   0  0  0  0  0  0  0  0  0  0  0  0
  1  2  1  0
  2  3  1  0
  3  4  1  0
  4  5  1  0
  5  6  1  0
  6  7  1  0
  7  8  1  0
  8  9  1  0
  9 10  1  0
 10 11  1  0
 11 12  1  0
 12 13  1  0
 13 14  1  0
 14 15  1  0
 15 16  1  0
 16 17  1  0
 17 18  1  0
 18 19  1  0
 19 20  1  0
 20 21  2  0
 21 22  1  0
 22 23  1  0
 23 24  2  0
 24 25  1  0
 25 26  2  0
 26 27  1  0
 27 28  2  0
 28 20  1  0
 28 23  1  0
  1 29  1  0
  1 30  1  0
  1 31  1  0
  2 32  1  0
  2 33  1  0
  3 34  1  0
  3 35  1  0
  4 36  1  0
  4 37  1  0
  5 38  1  0
  5 39  1  0
  6 40  1  0
  6 41  1  0
  7 42  1  0
  7 43  1  0
  8 44  1  0
  8 45  1  0
  9 46  1  0
  9 47  1  0
 10 48  1  0
 10 49  1  0
 11 50  1  0
 11 51  1  0
 12 52  1  0
 12 53  1  0
 13 54  1  0
 13 55  1  0
 14 56  1  0
 14 57  1  0
 15 58  1  0
 15 59  1  0
 16 60  1  0
 16 61  1  0
 17 62  1  0
 17 63  1  0
 18 64  1  0
 18 65  1  0
 19 66  1  0
 19 67  1  0
 21 68  1  0
 22 69  1  0
 24 70  1  0
 25 71  1  0
 26 72  1  0
 27 73  1  0
M  CHG  1  17   1
M  END
>  <UniqueID>  (28) 
27

>  <SMILES>  (28) 
CCCCCCCCCCCCCCCC[NH2+]CCc1c[nH]c2ccccc12

>  <Energy>  (28) 
77.69128442232952

>  <Genealogy>  (28) 
CCCCCCCCCCCCCCCC[NH2+]CCc1c[nH]c2ccccc12 (protonated)
CCCCCCCCCCCCCCCC[NH2+]CCc1c[nH]c2ccccc12 (3D coordinates assigned)
CCCCCCCCCCCCCCCC[NH2+]CCc1c[nH]c2ccccc12 (optimized conformer: 77.69128442232952 kcal/mol)

$$$$
untitled_line_28
     RDKit          3D

 30 31  0  0  0  0  0  0  0  0999 V2000
   -5.0572    0.2856   -0.5866 N   0  0  0  0  0  0  0  0  0  0  0  0
   -3.7983    0.5321    0.0029 N   0  0  0  0  0  4  0  0  0  0  0  0
   -2.8109   -0.4616   -0.4498 C   0  0  0  0  0  0  0  0  0  0  0  0
   -1.4423   -0.1951    0.1897 C   0  0  0  0  0  0  0  0  0  0  0  0
   -0.4067   -1.2231   -0.2755 C   0  0  0  0  0  0  0  0  0  0  0  0
    0.9262   -0.9490    0.3541 C   0  0  0  0  0  0  0  0  0  0  0  0
    1.4186   -1.5071    1.5300 C   0  0  0  0  0  0  0  0  0  0  0  0
    2.6234   -0.9739    1.8369 N   0  0  0  0  0  0  0  0  0  0  0  0
    2.8888   -0.0755    0.8724 C   0  0  0  0  0  0  0  0  0  0  0  0
    4.0112    0.7451    0.7673 C   0  0  0  0  0  0  0  0  0  0  0  0
    4.0754    1.6350   -0.3206 C   0  0  0  0  0  0  0  0  0  0  0  0
    3.0267    1.6871   -1.2659 C   0  0  0  0  0  0  0  0  0  0  0  0
    1.9050    0.8485   -1.1332 C   0  0  0  0  0  0  0  0  0  0  0  0
    1.8729   -0.0273   -0.0477 C   0  0  0  0  0  0  0  0  0  0  0  0
   -5.3792   -0.6759   -0.3241 H   0  0  0  0  0  0  0  0  0  0  0  0
   -4.9651    0.3301   -1.6290 H   0  0  0  0  0  0  0  0  0  0  0  0
   -3.4925    1.4957   -0.2695 H   0  0  0  0  0  0  0  0  0  0  0  0
   -3.9089    0.4840    1.0429 H   0  0  0  0  0  0  0  0  0  0  0  0
   -3.1494   -1.4845   -0.1695 H   0  0  0  0  0  0  0  0  0  0  0  0
   -2.7089   -0.4143   -1.5575 H   0  0  0  0  0  0  0  0  0  0  0  0
   -1.1007    0.8261   -0.0894 H   0  0  0  0  0  0  0  0  0  0  0  0
   -1.5383   -0.2444    1.2969 H   0  0  0  0  0  0  0  0  0  0  0  0
   -0.3045   -1.1858   -1.3816 H   0  0  0  0  0  0  0  0  0  0  0  0
   -0.7401   -2.2462    0.0042 H   0  0  0  0  0  0  0  0  0  0  0  0
    0.9171   -2.2531    2.1328 H   0  0  0  0  0  0  0  0  0  0  0  0
    3.2166   -1.2050    2.6646 H   0  0  0  0  0  0  0  0  0  0  0  0
    4.8067    0.7024    1.5000 H   0  0  0  0  0  0  0  0  0  0  0  0
    4.9326    2.2862   -0.4320 H   0  0  0  0  0  0  0  0  0  0  0  0
    3.0856    2.3780   -2.0967 H   0  0  0  0  0  0  0  0  0  0  0  0
    1.0960    0.8862   -1.8510 H   0  0  0  0  0  0  0  0  0  0  0  0
  1  2  1  0
  2  3  1  0
  3  4  1  0
  4  5  1  0
  5  6  1  0
  6  7  2  0
  7  8  1  0
  8  9  1  0
  9 10  2  0
 10 11  1  0
 11 12  2  0
 12 13  1  0
 13 14  2  0
 14  6  1  0
 14  9  1  0
  1 15  1  0
  1 16  1  0
  2 17  1  0
  2 18  1  0
  3 19  1  0
  3 20  1  0
  4 21  1  0
  4 22  1  0
  5 23  1  0
  5 24  1  0
  7 25  1  0
  8 26  1  0
 10 27  1  0
 11 28  1  0
 12 29  1  0
 13 30  1  0
M  CHG  1   2   1
M  END
>  <UniqueID>  (29) 
28

>  <SMILES>  (29) 
N[NH2+]CCCc1c[nH]c2ccccc12

>  <Energy>  (29) 
58.00901409765208

>  <Genealogy>  (29) 
N[NH2+]CCCc1c[nH]c2ccccc12 (protonated)
N[NH2+]CCCc1c[nH]c2ccccc12 (3D coordinates assigned)
N[NH2+]CCCc1c[nH]c2ccccc12 (optimized conformer: 58.00901409765208 kcal/mol)

$$$$
untitled_line_29
     RDKit          3D

 31 32  0  0  0  0  0  0  0  0999 V2000
   -3.0852   -0.4146    1.8660 O   0  0  0  0  0  0  0  0  0  0  0  0
   -3.5158   -0.4405    0.6817 C   0  0  0  0  0  0  0  0  0  0  0  0
   -4.6428   -1.2624    0.3593 N   0  0  0  0  0  0  0  0  0  0  0  0
   -5.2512   -2.0002    1.3187 O   0  0  0  0  0  0  0  0  0  0  0  0
   -2.8531    0.3697   -0.3575 C   0  0  0  0  0  0  0  0  0  0  0  0
   -3.2780    0.3285   -1.5439 O   0  0  0  0  0  0  0  0  0  0  0  0
   -1.7315    1.2033   -0.0261 N   0  0  0  0  0  0  0  0  0  0  0  0
   -0.9752    1.9438   -1.0361 C   0  0  0  0  0  0  0  0  0  0  0  0
   -0.1113    1.0023   -1.8823 C   0  0  0  0  0  0  0  0  0  0  0  0
    0.8685    0.2485   -1.0313 C   0  0  0  0  0  0  0  0  0  0  0  0
    0.6927   -1.0241   -0.4957 C   0  0  0  0  0  0  0  0  0  0  0  0
    1.7447   -1.3559    0.2871 N   0  0  0  0  0  0  0  0  0  0  0  0
    2.5759   -0.2995    0.2600 C   0  0  0  0  0  0  0  0  0  0  0  0
    3.7888   -0.1610    0.9337 C   0  0  0  0  0  0  0  0  0  0  0  0
    4.4916    1.0482    0.7804 C   0  0  0  0  0  0  0  0  0  0  0  0
    3.9705    2.0813   -0.0301 C   0  0  0  0  0  0  0  0  0  0  0  0
    2.7427    1.9144   -0.6963 C   0  0  0  0  0  0  0  0  0  0  0  0
    2.0723    0.7024   -0.5297 C   0  0  0  0  0  0  0  0  0  0  0  0
   -5.0230   -1.2866   -0.6132 H   0  0  0  0  0  0  0  0  0  0  0  0
   -4.7954   -2.8800    1.2897 H   0  0  0  0  0  0  0  0  0  0  0  0
   -1.4503    1.3139    0.9741 H   0  0  0  0  0  0  0  0  0  0  0  0
   -1.6749    2.5045   -1.6926 H   0  0  0  0  0  0  0  0  0  0  0  0
   -0.3201    2.6885   -0.5333 H   0  0  0  0  0  0  0  0  0  0  0  0
    0.4427    1.5979   -2.6389 H   0  0  0  0  0  0  0  0  0  0  0  0
   -0.7558    0.2848   -2.4333 H   0  0  0  0  0  0  0  0  0  0  0  0
   -0.1651   -1.6638   -0.6580 H   0  0  0  0  0  0  0  0  0  0  0  0
    1.8730   -2.2466    0.8169 H   0  0  0  0  0  0  0  0  0  0  0  0
    4.1768   -0.9558    1.5576 H   0  0  0  0  0  0  0  0  0  0  0  0
    5.4362    1.1887    1.2894 H   0  0  0  0  0  0  0  0  0  0  0  0
    4.5185    3.0083   -0.1381 H   0  0  0  0  0  0  0  0  0  0  0  0
    2.3356    2.7031   -1.3155 H   0  0  0  0  0  0  0  0  0  0  0  0
  1  2  2  0
  2  3  1  0
  3  4  1  0
  2  5  1  0
  5  6  2  0
  5  7  1  0
  7  8  1  0
  8  9  1  0
  9 10  1  0
 10 11  2  0
 11 12  1  0
 12 13  1  0
 13 14  2  0
 14 15  1  0
 15 16  2  0
 16 17  1  0
 17 18  2  0
 18 10  1  0
 18 13  1  0
  3 19  1  0
  4 20  1  0
  7 21  1  0
  8 22  1  0
  8 23  1  0
  9 24  1  0
  9 25  1  0
 11 26  1  0
 12 27  1  0
 14 28  1  0
 15 29  1  0
 16 30  1  0
 17 31  1  0
M  END
>  <UniqueID>  (30) 
29

>  <SMILES>  (30) 
O=C(NO)C(=O)NCCc1c[nH]c2ccccc12

>  <Energy>  (30) 
55.67824911611364

>  <Genealogy>  (30) 
O=C(NO)C(=O)NCCc1c[nH]c2ccccc12 (3D coordinates assigned)
O=C(NO)C(=O)NCCc1c[nH]c2ccccc12 (optimized conformer: 55.67824911611364 kcal/mol)

$$$$
untitled_line_30
     RDKit          3D

 70 71  0  0  0  0  0  0  0  0999 V2000
   -6.8516   -2.6691   -4.2808 C   0  0  0  0  0  0  0  0  0  0  0  0
   -5.6822   -3.2581   -3.4922 C   0  0  0  0  0  0  0  0  0  0  0  0
   -5.4757   -2.5763   -2.1307 C   0  0  0  0  0  0  0  0  0  0  0  0
   -4.8821   -1.1637   -2.2621 C   0  0  0  0  0  0  0  0  0  0  0  0
   -4.6487   -0.4954   -0.8972 C   0  0  0  0  0  0  0  0  0  0  0  0
   -3.4205   -1.0563   -0.1660 C   0  0  0  0  0  0  0  0  0  0  0  0
   -3.1975   -0.3332    1.1679 C   0  0  0  0  0  0  0  0  0  0  0  0
   -1.9665   -0.8905    1.8935 C   0  0  0  0  0  0  0  0  0  0  0  0
   -1.7226   -0.1512    3.2177 C   0  0  0  0  0  0  0  0  0  0  0  0
   -0.5466   -0.7384    4.0166 C   0  0  0  0  0  0  0  0  0  0  0  0
    0.8109   -0.4271    3.3691 C   0  0  0  0  0  0  0  0  0  0  0  0
    1.9759   -0.9730    4.2129 C   0  0  0  0  0  0  0  0  0  0  0  0
    3.3423   -0.4902    3.6980 C   0  0  0  0  0  0  0  0  0  0  0  0
    3.7528   -1.1682    2.3770 C   0  0  0  0  0  0  0  0  0  0  0  0
    4.9684   -0.4877    1.7277 C   0  0  0  0  0  0  0  0  0  0  0  0
    4.6440    0.8651    1.2092 N   0  0  0  0  0  4  0  0  0  0  0  0
    4.9442    1.0212   -0.2264 C   0  0  0  0  0  0  0  0  0  0  0  0
    3.9024    0.3358   -1.1340 C   0  0  0  0  0  0  0  0  0  0  0  0
    2.5521    0.9939   -1.0543 C   0  0  0  0  0  0  0  0  0  0  0  0
    1.4065    0.4690   -0.4625 C   0  0  0  0  0  0  0  0  0  0  0  0
    0.3778    1.3403   -0.5649 N   0  0  0  0  0  0  0  0  0  0  0  0
    0.8604    2.4078   -1.2225 C   0  0  0  0  0  0  0  0  0  0  0  0
    0.1661    3.5619   -1.5812 C   0  0  0  0  0  0  0  0  0  0  0  0
    0.8655    4.5567   -2.2877 C   0  0  0  0  0  0  0  0  0  0  0  0
    2.2264    4.3760   -2.6195 C   0  0  0  0  0  0  0  0  0  0  0  0
    2.9013    3.2001   -2.2462 C   0  0  0  0  0  0  0  0  0  0  0  0
    2.1834    2.2337   -1.5408 C   0  0  0  0  0  0  0  0  0  0  0  0
   -6.6297   -1.6289   -4.5966 H   0  0  0  0  0  0  0  0  0  0  0  0
   -7.0224   -3.2779   -5.1944 H   0  0  0  0  0  0  0  0  0  0  0  0
   -7.7790   -2.6831   -3.6695 H   0  0  0  0  0  0  0  0  0  0  0  0
   -5.8931   -4.3349   -3.3151 H   0  0  0  0  0  0  0  0  0  0  0  0
   -4.7535   -3.1936   -4.0994 H   0  0  0  0  0  0  0  0  0  0  0  0
   -6.4407   -2.5324   -1.5821 H   0  0  0  0  0  0  0  0  0  0  0  0
   -4.7845   -3.2128   -1.5419 H   0  0  0  0  0  0  0  0  0  0  0  0
   -5.5915   -0.5262   -2.8311 H   0  0  0  0  0  0  0  0  0  0  0  0
   -3.9285   -1.2004   -2.8333 H   0  0  0  0  0  0  0  0  0  0  0  0
   -4.4890    0.5912   -1.0699 H   0  0  0  0  0  0  0  0  0  0  0  0
   -5.5549   -0.6052   -0.2625 H   0  0  0  0  0  0  0  0  0  0  0  0
   -2.5213   -0.9279   -0.8091 H   0  0  0  0  0  0  0  0  0  0  0  0
   -3.5594   -2.1395    0.0350 H   0  0  0  0  0  0  0  0  0  0  0  0
   -3.0539    0.7542    0.9782 H   0  0  0  0  0  0  0  0  0  0  0  0
   -4.0937   -0.4656    1.8137 H   0  0  0  0  0  0  0  0  0  0  0  0
   -1.0842   -0.7771    1.2292 H   0  0  0  0  0  0  0  0  0  0  0  0
   -2.1203   -1.9739    2.0977 H   0  0  0  0  0  0  0  0  0  0  0  0
   -1.5395    0.9274    3.0192 H   0  0  0  0  0  0  0  0  0  0  0  0
   -2.6378   -0.2289    3.8447 H   0  0  0  0  0  0  0  0  0  0  0  0
   -0.6742   -1.8393    4.1233 H   0  0  0  0  0  0  0  0  0  0  0  0
   -0.5665   -0.2934    5.0369 H   0  0  0  0  0  0  0  0  0  0  0  0
    0.9176    0.6756    3.2509 H   0  0  0  0  0  0  0  0  0  0  0  0
    0.8427   -0.8968    2.3665 H   0  0  0  0  0  0  0  0  0  0  0  0
    1.9471   -2.0854    4.2274 H   0  0  0  0  0  0  0  0  0  0  0  0
    1.8614   -0.6171    5.2601 H   0  0  0  0  0  0  0  0  0  0  0  0
    3.3206    0.6157    3.5930 H   0  0  0  0  0  0  0  0  0  0  0  0
    4.1118   -0.7253    4.4661 H   0  0  0  0  0  0  0  0  0  0  0  0
    2.9241   -1.1657    1.6442 H   0  0  0  0  0  0  0  0  0  0  0  0
    4.0043   -2.2308    2.5860 H   0  0  0  0  0  0  0  0  0  0  0  0
    5.7890   -0.4240    2.4782 H   0  0  0  0  0  0  0  0  0  0  0  0
    5.3429   -1.1605    0.9232 H   0  0  0  0  0  0  0  0  0  0  0  0
    5.2261    1.5620    1.7313 H   0  0  0  0  0  0  0  0  0  0  0  0
    3.6461    1.1283    1.3802 H   0  0  0  0  0  0  0  0  0  0  0  0
    4.9829    2.1048   -0.4746 H   0  0  0  0  0  0  0  0  0  0  0  0
    5.9555    0.6158   -0.4549 H   0  0  0  0  0  0  0  0  0  0  0  0
    4.2555    0.3875   -2.1862 H   0  0  0  0  0  0  0  0  0  0  0  0
    3.8126   -0.7402   -0.8721 H   0  0  0  0  0  0  0  0  0  0  0  0
    1.3262   -0.5030    0.0011 H   0  0  0  0  0  0  0  0  0  0  0  0
   -0.5959    1.2051   -0.2130 H   0  0  0  0  0  0  0  0  0  0  0  0
   -0.8782    3.6883   -1.3277 H   0  0  0  0  0  0  0  0  0  0  0  0
    0.3557    5.4637   -2.5827 H   0  0  0  0  0  0  0  0  0  0  0  0
    2.7536    5.1457   -3.1674 H   0  0  0  0  0  0  0  0  0  0  0  0
    3.9407    3.0527   -2.5079 H   0  0  0  0  0  0  0  0  0  0  0  0
  1  2  1  0
  2  3  1  0
  3  4  1  0
  4  5  1  0
  5  6  1  0
  6  7  1  0
  7  8  1  0
  8  9  1  0
  9 10  1  0
 10 11  1  0
 11 12  1  0
 12 13  1  0
 13 14  1  0
 14 15  1  0
 15 16  1  0
 16 17  1  0
 17 18  1  0
 18 19  1  0
 19 20  2  0
 20 21  1  0
 21 22  1  0
 22 23  2  0
 23 24  1  0
 24 25  2  0
 25 26  1  0
 26 27  2  0
 27 19  1  0
 27 22  1  0
  1 28  1  0
  1 29  1  0
  1 30  1  0
  2 31  1  0
  2 32  1  0
  3 33  1  0
  3 34  1  0
  4 35  1  0
  4 36  1  0
  5 37  1  0
  5 38  1  0
  6 39  1  0
  6 40  1  0
  7 41  1  0
  7 42  1  0
  8 43  1  0
  8 44  1  0
  9 45  1  0
  9 46  1  0
 10 47  1  0
 10 48  1  0
 11 49  1  0
 11 50  1  0
 12 51  1  0
 12 52  1  0
 13 53  1  0
 13 54  1  0
 14 55  1  0
 14 56  1  0
 15 57  1  0
 15 58  1  0
 16 59  1  0
 16 60  1  0
 17 61  1  0
 17 62  1  0
 18 63  1  0
 18 64  1  0
 20 65  1  0
 21 66  1  0
 23 67  1  0
 24 68  1  0
 25 69  1  0
 26 70  1  0
M  CHG  1  16   1
M  END
>  <UniqueID>  (31) 
30

>  <SMILES>  (31) 
CCCCCCCCCCCCCCC[NH2+]CCc1c[nH]c2ccccc12

>  <Energy>  (31) 
74.58822300057712

>  <Genealogy>  (31) 
CCCCCCCCCCCCCCC[NH2+]CCc1c[nH]c2ccccc12 (protonated)
CCCCCCCCCCCCCCC[NH2+]CCc1c[nH]c2ccccc12 (3D coordinates assigned)
CCCCCCCCCCCCCCC[NH2+]CCc1c[nH]c2ccccc12 (optimized conformer: 74.58822300057712 kcal/mol)

$$$$
untitled_line_31
     RDKit          3D

 30 31  0  0  0  0  0  0  0  0999 V2000
    0.8316    1.6058    3.9197 N   0  0  0  0  0  0  0  0  0  0  0  0
    1.7819    1.0380    3.0136 C   0  0  0  0  0  0  0  0  0  0  0  0
    2.9485    0.6690    3.4556 N   0  0  0  0  0  4  0  0  0  0  0  0
    1.4236    0.8907    1.6275 N   0  0  0  0  0  0  0  0  0  0  0  0
    2.3046    0.2848    0.6252 C   0  0  0  0  0  0  0  0  0  0  0  0
    1.6322    0.2167   -0.7513 C   0  0  0  0  0  0  0  0  0  0  0  0
    0.4741   -0.7390   -0.7520 C   0  0  0  0  0  0  0  0  0  0  0  0
   -0.8750   -0.4113   -0.6513 C   0  0  0  0  0  0  0  0  0  0  0  0
   -1.6328   -1.5316   -0.6317 N   0  0  0  0  0  0  0  0  0  0  0  0
   -0.7740   -2.5628   -0.7119 C   0  0  0  0  0  0  0  0  0  0  0  0
   -1.0835   -3.9223   -0.7150 C   0  0  0  0  0  0  0  0  0  0  0  0
   -0.0190   -4.8388   -0.7953 C   0  0  0  0  0  0  0  0  0  0  0  0
    1.3156   -4.3813   -0.8681 C   0  0  0  0  0  0  0  0  0  0  0  0
    1.5982   -3.0031   -0.8619 C   0  0  0  0  0  0  0  0  0  0  0  0
    0.5218   -2.1190   -0.7837 C   0  0  0  0  0  0  0  0  0  0  0  0
   -0.1092    1.9057    3.5808 H   0  0  0  0  0  0  0  0  0  0  0  0
    1.0597    1.7285    4.9314 H   0  0  0  0  0  0  0  0  0  0  0  0
    3.6763    0.2552    2.8338 H   0  0  0  0  0  0  0  0  0  0  0  0
    3.1938    0.7825    4.4645 H   0  0  0  0  0  0  0  0  0  0  0  0
    0.4826    1.2387    1.3351 H   0  0  0  0  0  0  0  0  0  0  0  0
    3.2275    0.8973    0.5361 H   0  0  0  0  0  0  0  0  0  0  0  0
    2.5908   -0.7397    0.9483 H   0  0  0  0  0  0  0  0  0  0  0  0
    1.2888    1.2300   -1.0533 H   0  0  0  0  0  0  0  0  0  0  0  0
    2.3775   -0.1207   -1.5031 H   0  0  0  0  0  0  0  0  0  0  0  0
   -1.2781    0.5911   -0.5877 H   0  0  0  0  0  0  0  0  0  0  0  0
   -2.6734   -1.5811   -0.5593 H   0  0  0  0  0  0  0  0  0  0  0  0
   -2.1090   -4.2632   -0.6558 H   0  0  0  0  0  0  0  0  0  0  0  0
   -0.2242   -5.9013   -0.8000 H   0  0  0  0  0  0  0  0  0  0  0  0
    2.1264   -5.0955   -0.9283 H   0  0  0  0  0  0  0  0  0  0  0  0
    2.6182   -2.6456   -0.9163 H   0  0  0  0  0  0  0  0  0  0  0  0
  1  2  1  0
  2  3  2  3
  2  4  1  0
  4  5  1  0
  5  6  1  0
  6  7  1  0
  7  8  2  0
  8  9  1  0
  9 10  1  0
 10 11  2  0
 11 12  1  0
 12 13  2  0
 13 14  1  0
 14 15  2  0
 15  7  1  0
 15 10  1  0
  1 16  1  0
  1 17  1  0
  3 18  1  0
  3 19  1  0
  4 20  1  0
  5 21  1  0
  5 22  1  0
  6 23  1  0
  6 24  1  0
  8 25  1  0
  9 26  1  0
 11 27  1  0
 12 28  1  0
 13 29  1  0
 14 30  1  0
M  CHG  1   3   1
M  END
>  <UniqueID>  (32) 
31

>  <SMILES>  (32) 
NC(=[NH2+])NCCc1c[nH]c2ccccc12

>  <Energy>  (32) 
56.63937961653979

>  <Genealogy>  (32) 
NC(=[NH2+])NCCc1c[nH]c2ccccc12 (protonated)
NC(=[NH2+])NCCc1c[nH]c2ccccc12 (3D coordinates assigned)
NC(=[NH2+])NCCc1c[nH]c2ccccc12 (optimized conformer: 56.63937961653979 kcal/mol)

$$$$
untitled_line_32
     RDKit          3D

 40 42  0  0  0  0  0  0  0  0999 V2000
    3.6171   -0.5216   -2.0264 S   0  0  0  0  0  0  0  0  0  0  0  0
    2.3032   -1.1204   -2.1399 C   0  0  0  0  0  0  0  0  0  0  0  0
    1.1575   -0.2969   -2.4741 N   0  0  0  0  0  4  0  0  0  0  0  0
    0.7179    0.4915   -1.3110 C   0  0  0  0  0  0  0  0  0  0  0  0
   -0.5718    1.2566   -1.6268 C   0  0  0  0  0  0  0  0  0  0  0  0
   -1.0292    2.0300   -0.4270 C   0  0  0  0  0  0  0  0  0  0  0  0
   -1.9119    1.5896    0.5547 C   0  0  0  0  0  0  0  0  0  0  0  0
   -2.0282    2.5153    1.5341 N   0  0  0  0  0  0  0  0  0  0  0  0
   -1.2156    3.5285    1.1863 C   0  0  0  0  0  0  0  0  0  0  0  0
   -0.9786    4.7042    1.8974 C   0  0  0  0  0  0  0  0  0  0  0  0
   -0.0621    5.6254    1.3578 C   0  0  0  0  0  0  0  0  0  0  0  0
    0.5930    5.3519    0.1363 C   0  0  0  0  0  0  0  0  0  0  0  0
    0.3361    4.1557   -0.5582 C   0  0  0  0  0  0  0  0  0  0  0  0
   -0.5829    3.2657   -0.0019 C   0  0  0  0  0  0  0  0  0  0  0  0
    2.1445   -2.5535   -1.9927 N   0  0  0  0  0  4  0  0  0  0  0  0
    1.4159   -2.8395   -0.7819 C   0  0  0  0  0  0  0  0  0  0  0  0
    2.0726   -2.8168    0.4621 C   0  0  0  0  0  0  0  0  0  0  0  0
    1.3586   -3.0450    1.6422 C   0  0  0  0  0  0  0  0  0  0  0  0
   -0.0155   -3.2934    1.5928 C   0  0  0  0  0  0  0  0  0  0  0  0
   -0.6784   -3.3151    0.3630 C   0  0  0  0  0  0  0  0  0  0  0  0
    0.0311   -3.0891   -0.8202 C   0  0  0  0  0  0  0  0  0  0  0  0
    0.3718   -0.9147   -2.7837 H   0  0  0  0  0  0  0  0  0  0  0  0
    1.3937    0.3408   -3.2714 H   0  0  0  0  0  0  0  0  0  0  0  0
    1.5093    1.2215   -1.0267 H   0  0  0  0  0  0  0  0  0  0  0  0
    0.5325   -0.1783   -0.4412 H   0  0  0  0  0  0  0  0  0  0  0  0
   -1.3692    0.5418   -1.9251 H   0  0  0  0  0  0  0  0  0  0  0  0
   -0.3999    1.9534   -2.4750 H   0  0  0  0  0  0  0  0  0  0  0  0
   -2.4278    0.6381    0.5584 H   0  0  0  0  0  0  0  0  0  0  0  0
   -2.6167    2.4450    2.3938 H   0  0  0  0  0  0  0  0  0  0  0  0
   -1.4796    4.9014    2.8362 H   0  0  0  0  0  0  0  0  0  0  0  0
    0.1452    6.5480    1.8843 H   0  0  0  0  0  0  0  0  0  0  0  0
    1.2990    6.0661   -0.2669 H   0  0  0  0  0  0  0  0  0  0  0  0
    0.8383    3.9372   -1.4916 H   0  0  0  0  0  0  0  0  0  0  0  0
    1.6316   -2.9247   -2.8260 H   0  0  0  0  0  0  0  0  0  0  0  0
    3.0667   -3.0517   -1.9614 H   0  0  0  0  0  0  0  0  0  0  0  0
    3.1348   -2.6133    0.5137 H   0  0  0  0  0  0  0  0  0  0  0  0
    1.8701   -3.0245    2.5959 H   0  0  0  0  0  0  0  0  0  0  0  0
   -0.5670   -3.4668    2.5077 H   0  0  0  0  0  0  0  0  0  0  0  0
   -1.7436   -3.5032    0.3268 H   0  0  0  0  0  0  0  0  0  0  0  0
   -0.4984   -3.0989   -1.7644 H   0  0  0  0  0  0  0  0  0  0  0  0
  1  2  2  0
  2  3  1  0
  3  4  1  0
  4  5  1  0
  5  6  1  0
  6  7  2  0
  7  8  1  0
  8  9  1  0
  9 10  2  0
 10 11  1  0
 11 12  2  0
 12 13  1  0
 13 14  2  0
  2 15  1  0
 15 16  1  0
 16 17  2  0
 17 18  1  0
 18 19  2  0
 19 20  1  0
 20 21  2  0
 14  6  1  0
 21 16  1  0
 14  9  1  0
  3 22  1  0
  3 23  1  0
  4 24  1  0
  4 25  1  0
  5 26  1  0
  5 27  1  0
  7 28  1  0
  8 29  1  0
 10 30  1  0
 11 31  1  0
 12 32  1  0
 13 33  1  0
 15 34  1  0
 15 35  1  0
 17 36  1  0
 18 37  1  0
 19 38  1  0
 20 39  1  0
 21 40  1  0
M  CHG  2   3   1  15   1
M  END
>  <UniqueID>  (33) 
32

>  <SMILES>  (33) 
S=C([NH2+]CCc1c[nH]c2ccccc12)[NH2+]c1ccccc1

>  <Energy>  (33) 
74.12126350148179

>  <Genealogy>  (33) 
S=C([NH2+]CCc1c[nH]c2ccccc12)[NH2+]c1ccccc1 (protonated)
S=C([NH2+]CCc1c[nH]c2ccccc12)[NH2+]c1ccccc1 (3D coordinates assigned)
S=C([NH2+]CCc1c[nH]c2ccccc12)[NH2+]c1ccccc1 (optimized conformer: 74.12126350148179 kcal/mol)

$$$$
untitled_line_33
     RDKit          3D

 42 44  0  0  0  0  0  0  0  0999 V2000
    1.3112   -2.0538   -0.6776 O   0  0  0  0  0  0  0  0  0  0  0  0
    1.2195   -1.3630    0.3731 C   0  0  0  0  0  0  0  0  0  0  0  0
    2.4038   -1.2556    1.2854 C   0  0  0  0  0  0  0  0  0  0  0  0
    3.4040   -0.4239    0.7018 O   0  0  0  0  0  0  0  0  0  0  0  0
    3.2827    0.9678    0.5918 C   0  0  0  0  0  0  0  0  0  0  0  0
    2.2644    1.5529    1.0545 O   0  0  0  0  0  0  0  0  0  0  0  0
    4.3533    1.7504   -0.0642 C   0  0  0  0  0  0  0  0  0  0  0  0
    4.2502    3.1491   -0.1849 C   0  0  0  0  0  0  0  0  0  0  0  0
    5.2663    3.8821   -0.8055 C   0  0  0  0  0  0  0  0  0  0  0  0
    6.3929    3.2298   -1.3114 C   0  0  0  0  0  0  0  0  0  0  0  0
    6.5054    1.8426   -1.1981 C   0  0  0  0  0  0  0  0  0  0  0  0
    5.4923    1.1044   -0.5784 C   0  0  0  0  0  0  0  0  0  0  0  0
    0.0067   -0.6595    0.6723 N   0  0  0  0  0  0  0  0  0  0  0  0
   -1.1411   -0.7010   -0.2328 C   0  0  0  0  0  0  0  0  0  0  0  0
   -2.2958    0.1428    0.3124 C   0  0  0  0  0  0  0  0  0  0  0  0
   -3.4682    0.1016   -0.6210 C   0  0  0  0  0  0  0  0  0  0  0  0
   -3.7675    1.0242   -1.6189 C   0  0  0  0  0  0  0  0  0  0  0  0
   -4.8668    0.6367   -2.3054 N   0  0  0  0  0  0  0  0  0  0  0  0
   -5.2558   -0.5279   -1.7576 C   0  0  0  0  0  0  0  0  0  0  0  0
   -6.3368   -1.3217   -2.1382 C   0  0  0  0  0  0  0  0  0  0  0  0
   -6.5526   -2.5200   -1.4335 C   0  0  0  0  0  0  0  0  0  0  0  0
   -5.6905   -2.8962   -0.3793 C   0  0  0  0  0  0  0  0  0  0  0  0
   -4.6068   -2.0756   -0.0177 C   0  0  0  0  0  0  0  0  0  0  0  0
   -4.4226   -0.8905   -0.7304 C   0  0  0  0  0  0  0  0  0  0  0  0
    2.8299   -2.2688    1.4409 H   0  0  0  0  0  0  0  0  0  0  0  0
    2.1083   -0.8589    2.2808 H   0  0  0  0  0  0  0  0  0  0  0  0
    3.3860    3.6766    0.1995 H   0  0  0  0  0  0  0  0  0  0  0  0
    5.1801    4.9572   -0.8935 H   0  0  0  0  0  0  0  0  0  0  0  0
    7.1783    3.7995   -1.7910 H   0  0  0  0  0  0  0  0  0  0  0  0
    7.3789    1.3381   -1.5905 H   0  0  0  0  0  0  0  0  0  0  0  0
    5.6018    0.0304   -0.5025 H   0  0  0  0  0  0  0  0  0  0  0  0
   -0.0466   -0.1014    1.5552 H   0  0  0  0  0  0  0  0  0  0  0  0
   -0.8353   -0.3092   -1.2280 H   0  0  0  0  0  0  0  0  0  0  0  0
   -1.4745   -1.7554   -0.3505 H   0  0  0  0  0  0  0  0  0  0  0  0
   -2.6041   -0.2403    1.3086 H   0  0  0  0  0  0  0  0  0  0  0  0
   -1.9608    1.1952    0.4369 H   0  0  0  0  0  0  0  0  0  0  0  0
   -3.2067    1.9244   -1.8351 H   0  0  0  0  0  0  0  0  0  0  0  0
   -5.3123    1.1375   -3.1063 H   0  0  0  0  0  0  0  0  0  0  0  0
   -6.9881   -1.0285   -2.9512 H   0  0  0  0  0  0  0  0  0  0  0  0
   -7.3826   -3.1592   -1.7030 H   0  0  0  0  0  0  0  0  0  0  0  0
   -5.8642   -3.8225    0.1533 H   0  0  0  0  0  0  0  0  0  0  0  0
   -3.9408   -2.3588    0.7871 H   0  0  0  0  0  0  0  0  0  0  0  0
  1  2  2  0
  2  3  1  0
  3  4  1  0
  4  5  1  0
  5  6  2  0
  5  7  1  0
  7  8  2  0
  8  9  1  0
  9 10  2  0
 10 11  1  0
 11 12  2  0
  2 13  1  0
 13 14  1  0
 14 15  1  0
 15 16  1  0
 16 17  2  0
 17 18  1  0
 18 19  1  0
 19 20  2  0
 20 21  1  0
 21 22  2  0
 22 23  1  0
 23 24  2  0
 12  7  1  0
 24 16  1  0
 24 19  1  0
  3 25  1  0
  3 26  1  0
  8 27  1  0
  9 28  1  0
 10 29  1  0
 11 30  1  0
 12 31  1  0
 13 32  1  0
 14 33  1  0
 14 34  1  0
 15 35  1  0
 15 36  1  0
 17 37  1  0
 18 38  1  0
 20 39  1  0
 21 40  1  0
 22 41  1  0
 23 42  1  0
M  END
>  <UniqueID>  (34) 
33

>  <SMILES>  (34) 
O=C(COC(=O)c1ccccc1)NCCc1c[nH]c2ccccc12

>  <Energy>  (34) 
69.6108473167672

>  <Genealogy>  (34) 
O=C(COC(=O)c1ccccc1)NCCc1c[nH]c2ccccc12 (3D coordinates assigned)
O=C(COC(=O)c1ccccc1)NCCc1c[nH]c2ccccc12 (optimized conformer: 69.6108473167672 kcal/mol)

$$$$
untitled_line_34
     RDKit          3D

 38 39  0  0  0  0  0  0  0  0999 V2000
   -1.8492    1.9135   -3.8975 O   0  0  0  0  0  0  0  0  0  0  0  0
   -0.6493    2.0181   -3.1742 C   0  0  2  0  0  0  0  0  0  0  0  0
   -0.9558    1.8130   -1.6708 C   0  0  0  0  0  0  0  0  0  0  0  0
    0.2753    1.7650   -0.7458 C   0  0  0  0  0  0  0  0  0  0  0  0
    1.2130    0.6873   -1.1163 N   0  0  0  0  0  4  0  0  0  0  0  0
    2.1673    0.3800   -0.0280 C   0  0  0  0  0  0  0  0  0  0  0  0
    1.7714   -0.8707    0.7799 C   0  0  0  0  0  0  0  0  0  0  0  0
    0.5138   -0.6611    1.5710 C   0  0  0  0  0  0  0  0  0  0  0  0
    0.3999    0.0548    2.7592 C   0  0  0  0  0  0  0  0  0  0  0  0
   -0.8938    0.1252    3.1463 N   0  0  0  0  0  0  0  0  0  0  0  0
   -1.5988   -0.5319    2.2091 C   0  0  0  0  0  0  0  0  0  0  0  0
   -2.9816   -0.7020    2.1590 C   0  0  0  0  0  0  0  0  0  0  0  0
   -3.5187   -1.4048    1.0653 C   0  0  0  0  0  0  0  0  0  0  0  0
   -2.6716   -1.9152    0.0572 C   0  0  0  0  0  0  0  0  0  0  0  0
   -1.2797   -1.7279    0.1331 C   0  0  0  0  0  0  0  0  0  0  0  0
   -0.7753   -1.0268    1.2297 C   0  0  0  0  0  0  0  0  0  0  0  0
   -0.0129    3.3843   -3.4851 C   0  0  0  0  0  0  0  0  0  0  0  0
   -0.7447    4.4069   -2.9071 F   0  0  0  0  0  0  0  0  0  0  0  0
    0.0132    3.5792   -4.8549 F   0  0  0  0  0  0  0  0  0  0  0  0
    1.2886    3.4354   -3.0214 F   0  0  0  0  0  0  0  0  0  0  0  0
   -2.0713    0.9470   -3.9533 H   0  0  0  0  0  0  0  0  0  0  0  0
    0.0511    1.2259   -3.5255 H   0  0  0  0  0  0  0  0  0  0  0  0
   -1.5136    0.8585   -1.5491 H   0  0  0  0  0  0  0  0  0  0  0  0
   -1.6340    2.6201   -1.3182 H   0  0  0  0  0  0  0  0  0  0  0  0
    0.7965    2.7460   -0.7456 H   0  0  0  0  0  0  0  0  0  0  0  0
   -0.1024    1.6159    0.2875 H   0  0  0  0  0  0  0  0  0  0  0  0
    1.7636    1.0076   -1.9466 H   0  0  0  0  0  0  0  0  0  0  0  0
    0.6898   -0.1724   -1.4020 H   0  0  0  0  0  0  0  0  0  0  0  0
    3.1687    0.1778   -0.4706 H   0  0  0  0  0  0  0  0  0  0  0  0
    2.3055    1.2476    0.6573 H   0  0  0  0  0  0  0  0  0  0  0  0
    1.6615   -1.7441    0.1025 H   0  0  0  0  0  0  0  0  0  0  0  0
    2.5941   -1.1113    1.4872 H   0  0  0  0  0  0  0  0  0  0  0  0
    1.2172    0.5169    3.2975 H   0  0  0  0  0  0  0  0  0  0  0  0
   -1.2674    0.6107    3.9920 H   0  0  0  0  0  0  0  0  0  0  0  0
   -3.6234   -0.3020    2.9334 H   0  0  0  0  0  0  0  0  0  0  0  0
   -4.5883   -1.5533    0.9950 H   0  0  0  0  0  0  0  0  0  0  0  0
   -3.0961   -2.4527   -0.7807 H   0  0  0  0  0  0  0  0  0  0  0  0
   -0.6290   -2.1167   -0.6384 H   0  0  0  0  0  0  0  0  0  0  0  0
  1  2  1  0
  2  3  1  0
  3  4  1  0
  4  5  1  0
  5  6  1  0
  6  7  1  0
  7  8  1  0
  8  9  2  0
  9 10  1  0
 10 11  1  0
 11 12  2  0
 12 13  1  0
 13 14  2  0
 14 15  1  0
 15 16  2  0
  2 17  1  0
 17 18  1  0
 17 19  1  0
 17 20  1  0
 16  8  1  0
 16 11  1  0
  1 21  1  0
  2 22  1  6
  3 23  1  0
  3 24  1  0
  4 25  1  0
  4 26  1  0
  5 27  1  0
  5 28  1  0
  6 29  1  0
  6 30  1  0
  7 31  1  0
  7 32  1  0
  9 33  1  0
 10 34  1  0
 12 35  1  0
 13 36  1  0
 14 37  1  0
 15 38  1  0
M  CHG  1   5   1
M  END
>  <UniqueID>  (35) 
34

>  <SMILES>  (35) 
O[C@H](CC[NH2+]CCc1c[nH]c2ccccc12)C(F)(F)F

>  <Energy>  (35) 
66.31769541829496

>  <Genealogy>  (35) 
OC(CC[NH2+]CCc1c[nH]c2ccccc12)C(F)(F)F (protonated)
O[C@H](CC[NH2+]CCc1c[nH]c2ccccc12)C(F)(F)F (chirality)
O[C@H](CC[NH2+]CCc1c[nH]c2ccccc12)C(F)(F)F (3D coordinates assigned)
O[C@H](CC[NH2+]CCc1c[nH]c2ccccc12)C(F)(F)F (optimized conformer: 66.31769541829496 kcal/mol)

$$$$
untitled_line_35
     RDKit          3D

 41 43  0  0  0  0  0  0  0  0999 V2000
   -1.2202    4.2739   -3.6607 C   0  0  0  0  0  0  0  0  0  0  0  0
   -1.4761    4.2304   -2.2720 C   0  0  0  0  0  0  0  0  0  0  0  0
   -1.5577    2.9969   -1.6004 C   0  0  0  0  0  0  0  0  0  0  0  0
   -1.3820    1.8347   -2.3519 C   0  0  0  0  0  0  0  0  0  0  0  0
   -1.3945    0.5023   -1.9891 C   0  0  0  0  0  0  0  0  0  0  0  0
   -1.5513   -0.0687   -0.6117 C   0  0  0  0  0  0  0  0  0  0  0  0
   -0.2071   -0.0490    0.1353 C   0  0  0  0  0  0  0  0  0  0  0  0
   -0.3202   -0.6171    1.4946 N   0  0  0  0  0  4  0  0  0  0  0  0
   -0.2049   -2.0992    1.5141 C   0  0  0  0  0  0  0  0  0  0  0  0
    1.2712   -2.5797    1.5002 C   0  0  0  0  0  0  0  0  0  0  0  0
    1.9919   -2.3600    2.8411 C   0  0  0  0  0  0  0  0  0  0  0  0
    1.2041   -2.9614    4.0092 C   0  0  0  0  0  0  0  0  0  0  0  0
   -0.2279   -2.4202    4.0457 C   0  0  0  0  0  0  0  0  0  0  0  0
   -0.9496   -2.7084    2.7244 C   0  0  0  0  0  0  0  0  0  0  0  0
   -1.1265   -0.2084   -3.1551 C   0  0  0  0  0  0  0  0  0  0  0  0
   -0.9743    0.6381   -4.1992 N   0  0  0  0  0  0  0  0  0  0  0  0
   -1.1301    1.8765   -3.6994 C   0  0  0  0  0  0  0  0  0  0  0  0
   -1.0420    3.0842   -4.3905 C   0  0  0  0  0  0  0  0  0  0  0  0
   -1.1582    5.2287   -4.1664 H   0  0  0  0  0  0  0  0  0  0  0  0
   -1.6090    5.1521   -1.7205 H   0  0  0  0  0  0  0  0  0  0  0  0
   -1.7493    2.9564   -0.5360 H   0  0  0  0  0  0  0  0  0  0  0  0
   -1.9361   -1.1064   -0.6930 H   0  0  0  0  0  0  0  0  0  0  0  0
   -2.3033    0.5285   -0.0527 H   0  0  0  0  0  0  0  0  0  0  0  0
    0.1305    1.0093    0.2137 H   0  0  0  0  0  0  0  0  0  0  0  0
    0.5605   -0.5870   -0.4626 H   0  0  0  0  0  0  0  0  0  0  0  0
    0.4241   -0.1895    2.0905 H   0  0  0  0  0  0  0  0  0  0  0  0
   -1.2326   -0.3142    1.9096 H   0  0  0  0  0  0  0  0  0  0  0  0
   -0.6940   -2.5225    0.6089 H   0  0  0  0  0  0  0  0  0  0  0  0
    1.8420   -2.0701    0.6967 H   0  0  0  0  0  0  0  0  0  0  0  0
    1.2882   -3.6671    1.2661 H   0  0  0  0  0  0  0  0  0  0  0  0
    2.9921   -2.8424    2.7954 H   0  0  0  0  0  0  0  0  0  0  0  0
    2.1605   -1.2773    3.0202 H   0  0  0  0  0  0  0  0  0  0  0  0
    1.7153   -2.7109    4.9635 H   0  0  0  0  0  0  0  0  0  0  0  0
    1.1828   -4.0694    3.9135 H   0  0  0  0  0  0  0  0  0  0  0  0
   -0.2147   -1.3262    4.2432 H   0  0  0  0  0  0  0  0  0  0  0  0
   -0.7806   -2.9088    4.8769 H   0  0  0  0  0  0  0  0  0  0  0  0
   -1.0271   -3.8100    2.5884 H   0  0  0  0  0  0  0  0  0  0  0  0
   -1.9883   -2.3162    2.7748 H   0  0  0  0  0  0  0  0  0  0  0  0
   -1.0364   -1.2842   -3.2317 H   0  0  0  0  0  0  0  0  0  0  0  0
   -0.7627    0.3788   -5.1884 H   0  0  0  0  0  0  0  0  0  0  0  0
   -0.8396    3.1076   -5.4535 H   0  0  0  0  0  0  0  0  0  0  0  0
  1  2  2  0
  2  3  1  0
  3  4  2  0
  4  5  1  0
  5  6  1  0
  6  7  1  0
  7  8  1  0
  8  9  1  0
  9 10  1  0
 10 11  1  0
 11 12  1  0
 12 13  1  0
 13 14  1  0
  5 15  2  0
 15 16  1  0
 16 17  1  0
 17 18  2  0
 18  1  1  0
 17  4  1  0
 14  9  1  0
  1 19  1  0
  2 20  1  0
  3 21  1  0
  6 22  1  0
  6 23  1  0
  7 24  1  0
  7 25  1  0
  8 26  1  0
  8 27  1  0
  9 28  1  0
 10 29  1  0
 10 30  1  0
 11 31  1  0
 11 32  1  0
 12 33  1  0
 12 34  1  0
 13 35  1  0
 13 36  1  0
 14 37  1  0
 14 38  1  0
 15 39  1  0
 16 40  1  0
 18 41  1  0
M  CHG  1   8   1
M  END
>  <UniqueID>  (36) 
35

>  <SMILES>  (36) 
c1ccc2c(CC[NH2+]C3CCCCC3)c[nH]c2c1

>  <Energy>  (36) 
69.56539479321306

>  <Genealogy>  (36) 
c1ccc2c(CC[NH2+]C3CCCCC3)c[nH]c2c1 (protonated)
c1ccc2c(CC[NH2+]C3CCCCC3)c[nH]c2c1 (3D coordinates assigned)
c1ccc2c(CC[NH2+]C3CCCCC3)c[nH]c2c1 (nonaromatic ring conformer: 69.56539479321306 kcal/mol)

$$$$
untitled_line_36
     RDKit          3D

 37 39  0  0  0  0  0  0  0  0999 V2000
    2.6272   -2.2268    2.0778 S   0  0  0  0  0  0  0  0  0  0  0  0
    2.3311   -0.9634    1.4328 C   0  0  0  0  0  0  0  0  0  0  0  0
    1.1636   -0.2048    1.8308 N   0  0  0  0  0  4  0  0  0  0  0  0
   -0.0152   -0.6392    1.0666 C   0  0  0  0  0  0  0  0  0  0  0  0
   -1.2455    0.1933    1.4454 C   0  0  0  0  0  0  0  0  0  0  0  0
   -2.4421   -0.2456    0.6560 C   0  0  0  0  0  0  0  0  0  0  0  0
   -3.4000   -1.1755    1.0490 C   0  0  0  0  0  0  0  0  0  0  0  0
   -4.2936   -1.3811    0.0543 N   0  0  0  0  0  0  0  0  0  0  0  0
   -3.9001   -0.5995   -0.9665 C   0  0  0  0  0  0  0  0  0  0  0  0
   -4.4964   -0.4843   -2.2215 C   0  0  0  0  0  0  0  0  0  0  0  0
   -3.9007    0.3836   -3.1553 C   0  0  0  0  0  0  0  0  0  0  0  0
   -2.7337    1.1053   -2.8189 C   0  0  0  0  0  0  0  0  0  0  0  0
   -2.1525    0.9675   -1.5451 C   0  0  0  0  0  0  0  0  0  0  0  0
   -2.7696    0.1045   -0.6391 C   0  0  0  0  0  0  0  0  0  0  0  0
    3.1347   -0.5134    0.3157 N   0  0  0  0  0  4  0  0  0  0  0  0
    4.4014    0.0516    0.8090 C   0  0  0  0  0  0  0  0  0  0  0  0
    4.3869    1.5523    1.0661 C   0  0  0  0  0  0  0  0  0  0  0  0
    5.0807    0.9978   -0.1705 C   0  0  0  0  0  0  0  0  0  0  0  0
    1.3422    0.8097    1.6456 H   0  0  0  0  0  0  0  0  0  0  0  0
    0.9850   -0.3130    2.8581 H   0  0  0  0  0  0  0  0  0  0  0  0
    0.1771   -0.5258   -0.0249 H   0  0  0  0  0  0  0  0  0  0  0  0
   -0.2282   -1.7124    1.2758 H   0  0  0  0  0  0  0  0  0  0  0  0
   -1.4572    0.0765    2.5303 H   0  0  0  0  0  0  0  0  0  0  0  0
   -1.0499    1.2692    1.2478 H   0  0  0  0  0  0  0  0  0  0  0  0
   -3.4333   -1.6816    2.0050 H   0  0  0  0  0  0  0  0  0  0  0  0
   -5.1125   -2.0288    0.0740 H   0  0  0  0  0  0  0  0  0  0  0  0
   -5.3868   -1.0462   -2.4722 H   0  0  0  0  0  0  0  0  0  0  0  0
   -4.3378    0.4963   -4.1388 H   0  0  0  0  0  0  0  0  0  0  0  0
   -2.2823    1.7672   -3.5464 H   0  0  0  0  0  0  0  0  0  0  0  0
   -1.2560    1.5136   -1.2821 H   0  0  0  0  0  0  0  0  0  0  0  0
    2.5900    0.1857   -0.2421 H   0  0  0  0  0  0  0  0  0  0  0  0
    3.3479   -1.3155   -0.3230 H   0  0  0  0  0  0  0  0  0  0  0  0
    5.0817   -0.5846    1.4167 H   0  0  0  0  0  0  0  0  0  0  0  0
    3.4329    2.0791    0.8517 H   0  0  0  0  0  0  0  0  0  0  0  0
    5.0840    1.8852    1.8635 H   0  0  0  0  0  0  0  0  0  0  0  0
    4.5383    1.1938   -1.1200 H   0  0  0  0  0  0  0  0  0  0  0  0
    6.1892    1.0095   -0.1056 H   0  0  0  0  0  0  0  0  0  0  0  0
  1  2  2  0
  2  3  1  0
  3  4  1  0
  4  5  1  0
  5  6  1  0
  6  7  2  0
  7  8  1  0
  8  9  1  0
  9 10  2  0
 10 11  1  0
 11 12  2  0
 12 13  1  0
 13 14  2  0
  2 15  1  0
 15 16  1  0
 16 17  1  0
 17 18  1  0
 14  6  1  0
 18 16  1  0
 14  9  1  0
  3 19  1  0
  3 20  1  0
  4 21  1  0
  4 22  1  0
  5 23  1  0
  5 24  1  0
  7 25  1  0
  8 26  1  0
 10 27  1  0
 11 28  1  0
 12 29  1  0
 13 30  1  0
 15 31  1  0
 15 32  1  0
 16 33  1  0
 17 34  1  0
 17 35  1  0
 18 36  1  0
 18 37  1  0
M  CHG  2   3   1  15   1
M  END
>  <UniqueID>  (37) 
36

>  <SMILES>  (37) 
S=C([NH2+]CCc1c[nH]c2ccccc12)[NH2+]C1CC1

>  <Energy>  (37) 
334.55050453351026

>  <Genealogy>  (37) 
S=C([NH2+]CCc1c[nH]c2ccccc12)[NH2+]C1CC1 (protonated)
S=C([NH2+]CCc1c[nH]c2ccccc12)[NH2+]C1CC1 (3D coordinates assigned)
S=C([NH2+]CCc1c[nH]c2ccccc12)[NH2+]C1CC1 (nonaromatic ring conformer: 334.55050453351026 kcal/mol)

$$$$
untitled_line_37
     RDKit          3D

 40 41  0  0  0  0  0  0  0  0999 V2000
   -4.7431   -0.5551    0.8323 C   0  0  0  0  0  0  0  0  0  0  0  0
   -5.1900   -0.1656   -0.5846 C   0  0  0  0  0  0  0  0  0  0  0  0
   -6.5705    0.5006   -0.5333 C   0  0  0  0  0  0  0  0  0  0  0  0
   -4.1719    0.7732   -1.2653 C   0  0  0  0  0  0  0  0  0  0  0  0
   -2.8621    0.0805   -1.5355 C   0  0  0  0  0  0  0  0  0  0  0  0
   -2.7821   -0.7052   -2.5178 O   0  0  0  0  0  0  0  0  0  0  0  0
   -1.6874    0.2795   -0.6606 C   0  0  0  0  0  0  0  0  0  0  0  0
   -1.7702    1.0534    0.3321 O   0  0  0  0  0  0  0  0  0  0  0  0
   -0.4549   -0.4048   -0.9296 N   0  0  0  0  0  0  0  0  0  0  0  0
    0.7142   -0.2296   -0.0681 C   0  0  0  0  0  0  0  0  0  0  0  0
    1.8932   -1.0674   -0.5695 C   0  0  0  0  0  0  0  0  0  0  0  0
    3.0867   -0.8835    0.3191 C   0  0  0  0  0  0  0  0  0  0  0  0
    3.4409   -1.6762    1.4068 C   0  0  0  0  0  0  0  0  0  0  0  0
    4.5351   -1.1717    2.0217 N   0  0  0  0  0  0  0  0  0  0  0  0
    4.8660   -0.0612    1.3398 C   0  0  0  0  0  0  0  0  0  0  0  0
    5.9171    0.8144    1.6092 C   0  0  0  0  0  0  0  0  0  0  0  0
    6.0694    1.9357    0.7730 C   0  0  0  0  0  0  0  0  0  0  0  0
    5.1758    2.1563   -0.2987 C   0  0  0  0  0  0  0  0  0  0  0  0
    4.1227    1.2567   -0.5456 C   0  0  0  0  0  0  0  0  0  0  0  0
    4.0011    0.1512    0.2968 C   0  0  0  0  0  0  0  0  0  0  0  0
   -3.7933   -1.1285    0.7964 H   0  0  0  0  0  0  0  0  0  0  0  0
   -5.5081   -1.2024    1.3118 H   0  0  0  0  0  0  0  0  0  0  0  0
   -4.5956    0.3499    1.4599 H   0  0  0  0  0  0  0  0  0  0  0  0
   -5.2853   -1.0946   -1.1902 H   0  0  0  0  0  0  0  0  0  0  0  0
   -6.9192    0.7418   -1.5602 H   0  0  0  0  0  0  0  0  0  0  0  0
   -6.5314    1.4383    0.0621 H   0  0  0  0  0  0  0  0  0  0  0  0
   -7.3123   -0.1863   -0.0727 H   0  0  0  0  0  0  0  0  0  0  0  0
   -4.0173    1.6841   -0.6468 H   0  0  0  0  0  0  0  0  0  0  0  0
   -4.5826    1.1158   -2.2405 H   0  0  0  0  0  0  0  0  0  0  0  0
   -0.3956   -1.0413   -1.7570 H   0  0  0  0  0  0  0  0  0  0  0  0
    0.4543   -0.5408    0.9676 H   0  0  0  0  0  0  0  0  0  0  0  0
    1.0011    0.8448   -0.0574 H   0  0  0  0  0  0  0  0  0  0  0  0
    1.6073   -2.1416   -0.5844 H   0  0  0  0  0  0  0  0  0  0  0  0
    2.1549   -0.7660   -1.6066 H   0  0  0  0  0  0  0  0  0  0  0  0
    2.9195   -2.5657    1.7357 H   0  0  0  0  0  0  0  0  0  0  0  0
    5.0134   -1.5607    2.8645 H   0  0  0  0  0  0  0  0  0  0  0  0
    6.5929    0.6403    2.4365 H   0  0  0  0  0  0  0  0  0  0  0  0
    6.8747    2.6355    0.9543 H   0  0  0  0  0  0  0  0  0  0  0  0
    5.3008    3.0240   -0.9332 H   0  0  0  0  0  0  0  0  0  0  0  0
    3.4319    1.4217   -1.3621 H   0  0  0  0  0  0  0  0  0  0  0  0
  1  2  1  0
  2  3  1  0
  2  4  1  0
  4  5  1  0
  5  6  2  0
  5  7  1  0
  7  8  2  0
  7  9  1  0
  9 10  1  0
 10 11  1  0
 11 12  1  0
 12 13  2  0
 13 14  1  0
 14 15  1  0
 15 16  2  0
 16 17  1  0
 17 18  2  0
 18 19  1  0
 19 20  2  0
 20 12  1  0
 20 15  1  0
  1 21  1  0
  1 22  1  0
  1 23  1  0
  2 24  1  0
  3 25  1  0
  3 26  1  0
  3 27  1  0
  4 28  1  0
  4 29  1  0
  9 30  1  0
 10 31  1  0
 10 32  1  0
 11 33  1  0
 11 34  1  0
 13 35  1  0
 14 36  1  0
 16 37  1  0
 17 38  1  0
 18 39  1  0
 19 40  1  0
M  END
>  <UniqueID>  (38) 
37

>  <SMILES>  (38) 
CC(C)CC(=O)C(=O)NCCc1c[nH]c2ccccc12

>  <Energy>  (38) 
60.23709208872758

>  <Genealogy>  (38) 
CC(C)CC(=O)C(=O)NCCc1c[nH]c2ccccc12 (3D coordinates assigned)
CC(C)CC(=O)C(=O)NCCc1c[nH]c2ccccc12 (optimized conformer: 60.23709208872758 kcal/mol)

$$$$
untitled_line_38
     RDKit          3D

 41 43  0  0  0  0  0  0  0  0999 V2000
   -5.5585    1.8221   -2.6843 F   0  0  0  0  0  0  0  0  0  0  0  0
   -5.8917    1.2232   -1.4817 C   0  0  0  0  0  0  0  0  0  0  0  0
   -6.4861    2.1773   -0.6739 F   0  0  0  0  0  0  0  0  0  0  0  0
   -6.7979    0.2071   -1.7203 F   0  0  0  0  0  0  0  0  0  0  0  0
   -4.6668    0.6491   -0.8151 C   0  0  0  0  0  0  0  0  0  0  0  0
   -3.6053    0.1464   -1.5876 C   0  0  0  0  0  0  0  0  0  0  0  0
   -2.4897   -0.4271   -0.9709 C   0  0  0  0  0  0  0  0  0  0  0  0
   -2.4295   -0.5346    0.4265 C   0  0  0  0  0  0  0  0  0  0  0  0
   -1.2082   -1.1178    1.0894 C   0  0  0  0  0  0  0  0  0  0  0  0
   -0.1848   -0.0777    1.2821 N   0  0  0  0  0  4  0  0  0  0  0  0
    0.9936   -0.5711    2.0207 C   0  0  0  0  0  0  0  0  0  0  0  0
    1.8430   -1.5886    1.2335 C   0  0  0  0  0  0  0  0  0  0  0  0
    2.3204   -1.0408   -0.0800 C   0  0  0  0  0  0  0  0  0  0  0  0
    1.7718   -1.2968   -1.3336 C   0  0  0  0  0  0  0  0  0  0  0  0
    2.4140   -0.5811   -2.2847 N   0  0  0  0  0  0  0  0  0  0  0  0
    3.3571    0.1294   -1.6418 C   0  0  0  0  0  0  0  0  0  0  0  0
    4.2645    1.0289   -2.1998 C   0  0  0  0  0  0  0  0  0  0  0  0
    5.1624    1.6795   -1.3337 C   0  0  0  0  0  0  0  0  0  0  0  0
    5.1320    1.4211    0.0548 C   0  0  0  0  0  0  0  0  0  0  0  0
    4.2040    0.5094    0.5903 C   0  0  0  0  0  0  0  0  0  0  0  0
    3.3288   -0.1219   -0.2937 C   0  0  0  0  0  0  0  0  0  0  0  0
   -3.4914   -0.0440    1.2003 C   0  0  0  0  0  0  0  0  0  0  0  0
   -4.6076    0.5295    0.5844 C   0  0  0  0  0  0  0  0  0  0  0  0
   -3.6372    0.1981   -2.6686 H   0  0  0  0  0  0  0  0  0  0  0  0
   -1.6736   -0.7911   -1.5832 H   0  0  0  0  0  0  0  0  0  0  0  0
   -0.8171   -1.9366    0.4488 H   0  0  0  0  0  0  0  0  0  0  0  0
   -1.4915   -1.5669    2.0681 H   0  0  0  0  0  0  0  0  0  0  0  0
   -0.6042    0.7009    1.8434 H   0  0  0  0  0  0  0  0  0  0  0  0
    0.1039    0.3193    0.3581 H   0  0  0  0  0  0  0  0  0  0  0  0
    1.6399    0.2951    2.2854 H   0  0  0  0  0  0  0  0  0  0  0  0
    0.6755   -1.0328    2.9820 H   0  0  0  0  0  0  0  0  0  0  0  0
    1.2764   -2.5286    1.0703 H   0  0  0  0  0  0  0  0  0  0  0  0
    2.7289   -1.8593    1.8470 H   0  0  0  0  0  0  0  0  0  0  0  0
    0.9400   -1.9591   -1.5355 H   0  0  0  0  0  0  0  0  0  0  0  0
    2.2073   -0.5750   -3.3082 H   0  0  0  0  0  0  0  0  0  0  0  0
    4.2776    1.2231   -3.2645 H   0  0  0  0  0  0  0  0  0  0  0  0
    5.8800    2.3838   -1.7341 H   0  0  0  0  0  0  0  0  0  0  0  0
    5.8268    1.9284    0.7115 H   0  0  0  0  0  0  0  0  0  0  0  0
    4.1749    0.3073    1.6530 H   0  0  0  0  0  0  0  0  0  0  0  0
   -3.4574   -0.1091    2.2809 H   0  0  0  0  0  0  0  0  0  0  0  0
   -5.4240    0.8811    1.2027 H   0  0  0  0  0  0  0  0  0  0  0  0
  1  2  1  0
  2  3  1  0
  2  4  1  0
  2  5  1  0
  5  6  2  0
  6  7  1  0
  7  8  2  0
  8  9  1  0
  9 10  1  0
 10 11  1  0
 11 12  1  0
 12 13  1  0
 13 14  2  0
 14 15  1  0
 15 16  1  0
 16 17  2  0
 17 18  1  0
 18 19  2  0
 19 20  1  0
 20 21  2  0
  8 22  1  0
 22 23  2  0
 23  5  1  0
 21 13  1  0
 21 16  1  0
  6 24  1  0
  7 25  1  0
  9 26  1  0
  9 27  1  0
 10 28  1  0
 10 29  1  0
 11 30  1  0
 11 31  1  0
 12 32  1  0
 12 33  1  0
 14 34  1  0
 15 35  1  0
 17 36  1  0
 18 37  1  0
 19 38  1  0
 20 39  1  0
 22 40  1  0
 23 41  1  0
M  CHG  1  10   1
M  END
>  <UniqueID>  (39) 
38

>  <SMILES>  (39) 
FC(F)(F)c1ccc(C[NH2+]CCc2c[nH]c3ccccc23)cc1

>  <Energy>  (39) 
73.58154867501769

>  <Genealogy>  (39) 
FC(F)(F)c1ccc(C[NH2+]CCc2c[nH]c3ccccc23)cc1 (protonated)
FC(F)(F)c1ccc(C[NH2+]CCc2c[nH]c3ccccc23)cc1 (3D coordinates assigned)
FC(F)(F)c1ccc(C[NH2+]CCc2c[nH]c3ccccc23)cc1 (optimized conformer: 73.58154867501769 kcal/mol)

$$$$
untitled_line_39
     RDKit          3D

 55 58  0  0  0  0  0  0  0  0999 V2000
    2.0007   -6.3389    1.3649 O   0  0  0  0  0  0  0  0  0  0  0  0
    1.4710   -5.0522    1.4300 C   0  0  0  0  0  0  0  0  0  0  0  0
    0.6347   -4.7032    2.4937 C   0  0  0  0  0  0  0  0  0  0  0  0
    0.0958   -3.4157    2.5742 C   0  0  0  0  0  0  0  0  0  0  0  0
    0.3995   -2.4511    1.5927 C   0  0  0  0  0  0  0  0  0  0  0  0
   -0.1913   -1.0524    1.6390 C   0  0  2  0  0  0  0  0  0  0  0  0
    0.0713   -0.3471    2.9963 C   0  0  0  0  0  0  0  0  0  0  0  0
   -0.4988    1.0899    3.1124 C   0  0  0  0  0  0  0  0  0  0  0  0
   -0.1962    1.9697    1.9679 N   0  0  0  0  0  4  0  0  0  0  0  0
    1.2446    2.2488    1.8274 C   0  0  0  0  0  0  0  0  0  0  0  0
    1.5431    3.0369    0.5430 C   0  0  0  0  0  0  0  0  0  0  0  0
    1.2889    2.2075   -0.6844 C   0  0  0  0  0  0  0  0  0  0  0  0
    0.1822    2.2880   -1.5247 C   0  0  0  0  0  0  0  0  0  0  0  0
    0.2397    1.3278   -2.4759 N   0  0  0  0  0  0  0  0  0  0  0  0
    1.3671    0.6358   -2.2378 C   0  0  0  0  0  0  0  0  0  0  0  0
    1.8454   -0.4683   -2.9422 C   0  0  0  0  0  0  0  0  0  0  0  0
    3.0474   -1.0552   -2.5069 C   0  0  0  0  0  0  0  0  0  0  0  0
    3.7330   -0.5356   -1.3864 C   0  0  0  0  0  0  0  0  0  0  0  0
    3.2241    0.5769   -0.6922 C   0  0  0  0  0  0  0  0  0  0  0  0
    2.0339    1.1415   -1.1512 C   0  0  0  0  0  0  0  0  0  0  0  0
   -1.6546   -1.0879    1.2321 C   0  0  0  0  0  0  0  0  0  0  0  0
   -2.6688   -1.4622    2.1366 C   0  0  0  0  0  0  0  0  0  0  0  0
   -4.0035   -1.5086    1.7234 C   0  0  0  0  0  0  0  0  0  0  0  0
   -4.3407   -1.1975    0.4040 C   0  0  0  0  0  0  0  0  0  0  0  0
   -3.3429   -0.8441   -0.5072 C   0  0  0  0  0  0  0  0  0  0  0  0
   -2.0072   -0.7959   -0.0994 C   0  0  0  0  0  0  0  0  0  0  0  0
    1.2291   -2.8195    0.5165 C   0  0  0  0  0  0  0  0  0  0  0  0
    1.7655   -4.1072    0.4395 C   0  0  0  0  0  0  0  0  0  0  0  0
    2.6066   -6.6241    0.6048 H   0  0  0  0  0  0  0  0  0  0  0  0
    0.3984   -5.4325    3.2585 H   0  0  0  0  0  0  0  0  0  0  0  0
   -0.5579   -3.1820    3.4026 H   0  0  0  0  0  0  0  0  0  0  0  0
    0.3595   -0.4480    0.8864 H   0  0  0  0  0  0  0  0  0  0  0  0
   -0.3561   -0.9385    3.8307 H   0  0  0  0  0  0  0  0  0  0  0  0
    1.1655   -0.3247    3.1848 H   0  0  0  0  0  0  0  0  0  0  0  0
   -1.6034    1.0205    3.2248 H   0  0  0  0  0  0  0  0  0  0  0  0
   -0.1175    1.5504    4.0513 H   0  0  0  0  0  0  0  0  0  0  0  0
   -0.6882    2.8797    2.1299 H   0  0  0  0  0  0  0  0  0  0  0  0
   -0.5956    1.5636    1.0934 H   0  0  0  0  0  0  0  0  0  0  0  0
    1.8383    1.3119    1.8062 H   0  0  0  0  0  0  0  0  0  0  0  0
    1.5935    2.8472    2.6986 H   0  0  0  0  0  0  0  0  0  0  0  0
    2.6092    3.3476    0.5477 H   0  0  0  0  0  0  0  0  0  0  0  0
    0.9243    3.9596    0.5135 H   0  0  0  0  0  0  0  0  0  0  0  0
   -0.6303    2.9966   -1.4311 H   0  0  0  0  0  0  0  0  0  0  0  0
   -0.4629    1.1504   -3.2280 H   0  0  0  0  0  0  0  0  0  0  0  0
    1.3090   -0.8641   -3.7949 H   0  0  0  0  0  0  0  0  0  0  0  0
    3.4461   -1.9141   -3.0305 H   0  0  0  0  0  0  0  0  0  0  0  0
    4.6538   -0.9988   -1.0572 H   0  0  0  0  0  0  0  0  0  0  0  0
    3.7432    0.9783    0.1681 H   0  0  0  0  0  0  0  0  0  0  0  0
   -2.4369   -1.7121    3.1624 H   0  0  0  0  0  0  0  0  0  0  0  0
   -4.7779   -1.7875    2.4277 H   0  0  0  0  0  0  0  0  0  0  0  0
   -5.3748   -1.2348    0.0868 H   0  0  0  0  0  0  0  0  0  0  0  0
   -3.6035   -0.6106   -1.5318 H   0  0  0  0  0  0  0  0  0  0  0  0
   -1.2474   -0.5298   -0.8232 H   0  0  0  0  0  0  0  0  0  0  0  0
    1.4585   -2.1107   -0.2683 H   0  0  0  0  0  0  0  0  0  0  0  0
    2.4067   -4.3698   -0.3924 H   0  0  0  0  0  0  0  0  0  0  0  0
  1  2  1  0
  2  3  2  0
  3  4  1  0
  4  5  2  0
  5  6  1  0
  6  7  1  0
  7  8  1  0
  8  9  1  0
  9 10  1  0
 10 11  1  0
 11 12  1  0
 12 13  2  0
 13 14  1  0
 14 15  1  0
 15 16  2  0
 16 17  1  0
 17 18  2  0
 18 19  1  0
 19 20  2  0
  6 21  1  0
 21 22  2  0
 22 23  1  0
 23 24  2  0
 24 25  1  0
 25 26  2  0
  5 27  1  0
 27 28  2  0
 28  2  1  0
 20 12  1  0
 26 21  1  0
 20 15  1  0
  1 29  1  0
  3 30  1  0
  4 31  1  0
  6 32  1  6
  7 33  1  0
  7 34  1  0
  8 35  1  0
  8 36  1  0
  9 37  1  0
  9 38  1  0
 10 39  1  0
 10 40  1  0
 11 41  1  0
 11 42  1  0
 13 43  1  0
 14 44  1  0
 16 45  1  0
 17 46  1  0
 18 47  1  0
 19 48  1  0
 22 49  1  0
 23 50  1  0
 24 51  1  0
 25 52  1  0
 26 53  1  0
 27 54  1  0
 28 55  1  0
M  CHG  1   9   1
M  END
>  <UniqueID>  (40) 
39

>  <SMILES>  (40) 
Oc1ccc([C@H](CC[NH2+]CCc2c[nH]c3ccccc23)c2ccccc2)cc1

>  <Energy>  (40) 
86.20646009865668

>  <Genealogy>  (40) 
Oc1ccc(C(CC[NH2+]CCc2c[nH]c3ccccc23)c2ccccc2)cc1 (protonated)
Oc1ccc([C@H](CC[NH2+]CCc2c[nH]c3ccccc23)c2ccccc2)cc1 (chirality)
Oc1ccc([C@H](CC[NH2+]CCc2c[nH]c3ccccc23)c2ccccc2)cc1 (3D coordinates assigned)
Oc1ccc([C@H](CC[NH2+]CCc2c[nH]c3ccccc23)c2ccccc2)cc1 (optimized conformer: 86.20646009865668 kcal/mol)

$$$$
untitled_line_40
     RDKit          3D

 54 58  0  0  0  0  0  0  0  0999 V2000
    0.8997   -0.4337    1.4457 O   0  0  0  0  0  0  0  0  0  0  0  0
    0.4419   -0.8970    0.2014 C   0  0  2  0  0  0  0  0  0  0  0  0
   -0.0590    0.2980   -0.6229 C   0  0  0  0  0  0  0  0  0  0  0  0
    1.0100    1.2957   -0.7647 N   0  0  0  0  0  0  0  0  0  0  0  0
    0.5274    2.5164   -1.4295 C   0  0  0  0  0  0  0  0  0  0  0  0
   -0.1439    3.4723   -0.4344 C   0  0  0  0  0  0  0  0  0  0  0  0
    0.7607    3.7886    0.7205 C   0  0  0  0  0  0  0  0  0  0  0  0
    0.7708    3.1569    1.9606 C   0  0  0  0  0  0  0  0  0  0  0  0
    1.7718    3.6430    2.7295 N   0  0  0  0  0  0  0  0  0  0  0  0
    2.4000    4.5667    1.9813 C   0  0  0  0  0  0  0  0  0  0  0  0
    3.5121    5.3287    2.3372 C   0  0  0  0  0  0  0  0  0  0  0  0
    4.0249    6.2283    1.3845 C   0  0  0  0  0  0  0  0  0  0  0  0
    3.4239    6.3419    0.1109 C   0  0  0  0  0  0  0  0  0  0  0  0
    2.3037    5.5584   -0.2213 C   0  0  0  0  0  0  0  0  0  0  0  0
    1.8150    4.6799    0.7460 C   0  0  0  0  0  0  0  0  0  0  0  0
   -0.6708   -1.9386    0.4239 C   0  0  0  0  0  0  0  0  0  0  0  0
   -1.1009   -2.5407   -0.8439 N   0  0  0  0  0  0  0  0  0  0  0  0
   -0.4608   -3.5091   -1.5475 C   0  0  0  0  0  0  0  0  0  0  0  0
    0.7234   -4.1736   -1.2137 C   0  0  0  0  0  0  0  0  0  0  0  0
    1.2120   -5.1457   -2.1053 C   0  0  0  0  0  0  0  0  0  0  0  0
    0.5209   -5.4359   -3.3032 C   0  0  0  0  0  0  0  0  0  0  0  0
    1.1497   -6.6503   -4.4011 Cl  0  0  0  0  0  0  0  0  0  0  0  0
   -0.6680   -4.7548   -3.6220 C   0  0  0  0  0  0  0  0  0  0  0  0
   -1.1299   -3.7983   -2.7200 C   0  0  0  0  0  0  0  0  0  0  0  0
   -2.2301   -2.9726   -2.7522 C   0  0  0  0  0  0  0  0  0  0  0  0
   -3.2395   -2.8210   -3.7006 C   0  0  0  0  0  0  0  0  0  0  0  0
   -4.2340   -1.8583   -3.4513 C   0  0  0  0  0  0  0  0  0  0  0  0
   -5.5280   -1.6226   -4.6111 Cl  0  0  0  0  0  0  0  0  0  0  0  0
   -4.1937   -1.0774   -2.2747 C   0  0  0  0  0  0  0  0  0  0  0  0
   -3.1625   -1.2505   -1.3340 C   0  0  0  0  0  0  0  0  0  0  0  0
   -2.1844   -2.2162   -1.5969 C   0  0  0  0  0  0  0  0  0  0  0  0
    1.4921   -1.1396    1.8154 H   0  0  0  0  0  0  0  0  0  0  0  0
    1.2832   -1.3744   -0.3533 H   0  0  0  0  0  0  0  0  0  0  0  0
   -0.9352    0.7429   -0.1042 H   0  0  0  0  0  0  0  0  0  0  0  0
   -0.3801   -0.0498   -1.6301 H   0  0  0  0  0  0  0  0  0  0  0  0
    1.7532    0.8782   -1.3735 H   0  0  0  0  0  0  0  0  0  0  0  0
    1.3918    3.0455   -1.8896 H   0  0  0  0  0  0  0  0  0  0  0  0
   -0.1792    2.2753   -2.2556 H   0  0  0  0  0  0  0  0  0  0  0  0
   -1.0919    3.0349   -0.0573 H   0  0  0  0  0  0  0  0  0  0  0  0
   -0.4085    4.4149   -0.9596 H   0  0  0  0  0  0  0  0  0  0  0  0
    0.0925    2.3745    2.2755 H   0  0  0  0  0  0  0  0  0  0  0  0
    2.0141    3.3463    3.7010 H   0  0  0  0  0  0  0  0  0  0  0  0
    3.9694    5.2302    3.3132 H   0  0  0  0  0  0  0  0  0  0  0  0
    4.8873    6.8349    1.6281 H   0  0  0  0  0  0  0  0  0  0  0  0
    3.8288    7.0352   -0.6148 H   0  0  0  0  0  0  0  0  0  0  0  0
    1.8404    5.6377   -1.1961 H   0  0  0  0  0  0  0  0  0  0  0  0
   -0.2947   -2.7396    1.0962 H   0  0  0  0  0  0  0  0  0  0  0  0
   -1.5305   -1.4735    0.9500 H   0  0  0  0  0  0  0  0  0  0  0  0
    1.2578   -3.9536   -0.2993 H   0  0  0  0  0  0  0  0  0  0  0  0
    2.1270   -5.6731   -1.8680 H   0  0  0  0  0  0  0  0  0  0  0  0
   -1.2047   -4.9654   -4.5380 H   0  0  0  0  0  0  0  0  0  0  0  0
   -3.2558   -3.4213   -4.6012 H   0  0  0  0  0  0  0  0  0  0  0  0
   -4.9607   -0.3356   -2.0924 H   0  0  0  0  0  0  0  0  0  0  0  0
   -3.1378   -0.6419   -0.4412 H   0  0  0  0  0  0  0  0  0  0  0  0
  1  2  1  0
  2  3  1  0
  3  4  1  0
  4  5  1  0
  5  6  1  0
  6  7  1  0
  7  8  2  0
  8  9  1  0
  9 10  1  0
 10 11  2  0
 11 12  1  0
 12 13  2  0
 13 14  1  0
 14 15  2  0
  2 16  1  0
 16 17  1  0
 17 18  1  0
 18 19  2  0
 19 20  1  0
 20 21  2  0
 21 22  1  0
 21 23  1  0
 23 24  2  0
 24 25  1  0
 25 26  2  0
 26 27  1  0
 27 28  1  0
 27 29  2  0
 29 30  1  0
 30 31  2  0
 15  7  1  0
 31 17  1  0
 15 10  1  0
 24 18  1  0
 31 25  1  0
  1 32  1  0
  2 33  1  6
  3 34  1  0
  3 35  1  0
  4 36  1  0
  5 37  1  0
  5 38  1  0
  6 39  1  0
  6 40  1  0
  8 41  1  0
  9 42  1  0
 11 43  1  0
 12 44  1  0
 13 45  1  0
 14 46  1  0
 16 47  1  0
 16 48  1  0
 19 49  1  0
 20 50  1  0
 23 51  1  0
 26 52  1  0
 29 53  1  0
 30 54  1  0
M  END
>  <UniqueID>  (41) 
40

>  <SMILES>  (41) 
O[C@H](CNCCc1c[nH]c2ccccc12)Cn1c2ccc(Cl)cc2c2cc(Cl)ccc21

>  <Energy>  (41) 
126.24361637696389

>  <Genealogy>  (41) 
O[C@H](CNCCc1c[nH]c2ccccc12)Cn1c2ccc(Cl)cc2c2cc(Cl)ccc21 (chirality)
O[C@H](CNCCc1c[nH]c2ccccc12)Cn1c2ccc(Cl)cc2c2cc(Cl)ccc21 (3D coordinates assigned)
O[C@H](CNCCc1c[nH]c2ccccc12)Cn1c2ccc(Cl)cc2c2cc(Cl)ccc21 (optimized conformer: 126.24361637696389 kcal/mol)

$$$$
untitled_line_41
     RDKit          3D

 30 31  0  0  0  0  0  0  0  0999 V2000
    5.0502   -0.2453    0.0305 N   0  0  0  0  0  0  0  0  0  0  0  0
    3.7542   -0.2120    0.5846 N   0  0  0  0  0  4  0  0  0  0  0  0
    2.8235    0.3227   -0.4160 C   0  0  0  0  0  0  0  0  0  0  0  0
    1.3912    0.3482    0.1330 C   0  0  0  0  0  0  0  0  0  0  0  0
    0.4132    0.9068   -0.9048 C   0  0  0  0  0  0  0  0  0  0  0  0
   -0.9824    0.9231   -0.3571 C   0  0  0  0  0  0  0  0  0  0  0  0
   -1.6081    1.9858    0.2877 C   0  0  0  0  0  0  0  0  0  0  0  0
   -2.8388    1.6203    0.7141 N   0  0  0  0  0  0  0  0  0  0  0  0
   -2.9894    0.3332    0.3557 C   0  0  0  0  0  0  0  0  0  0  0  0
   -4.0901   -0.4880    0.5964 C   0  0  0  0  0  0  0  0  0  0  0  0
   -4.0267   -1.8205    0.1489 C   0  0  0  0  0  0  0  0  0  0  0  0
   -2.8762   -2.2977   -0.5180 C   0  0  0  0  0  0  0  0  0  0  0  0
   -1.7793   -1.4466   -0.7452 C   0  0  0  0  0  0  0  0  0  0  0  0
   -1.8744   -0.1295   -0.2952 C   0  0  0  0  0  0  0  0  0  0  0  0
    5.6728   -0.7569    0.6988 H   0  0  0  0  0  0  0  0  0  0  0  0
    5.4162    0.7352   -0.0175 H   0  0  0  0  0  0  0  0  0  0  0  0
    3.4757   -1.1903    0.8352 H   0  0  0  0  0  0  0  0  0  0  0  0
    3.7581    0.3913    1.4422 H   0  0  0  0  0  0  0  0  0  0  0  0
    2.8540   -0.3112   -1.3312 H   0  0  0  0  0  0  0  0  0  0  0  0
    3.1254    1.3578   -0.6944 H   0  0  0  0  0  0  0  0  0  0  0  0
    1.3596    0.9814    1.0471 H   0  0  0  0  0  0  0  0  0  0  0  0
    1.0864   -0.6853    0.4092 H   0  0  0  0  0  0  0  0  0  0  0  0
    0.7095    1.9418   -1.1823 H   0  0  0  0  0  0  0  0  0  0  0  0
    0.4390    0.2840   -1.8250 H   0  0  0  0  0  0  0  0  0  0  0  0
   -1.1811    2.9677    0.4457 H   0  0  0  0  0  0  0  0  0  0  0  0
   -3.5237    2.2159    1.2305 H   0  0  0  0  0  0  0  0  0  0  0  0
   -4.9646   -0.1150    1.1137 H   0  0  0  0  0  0  0  0  0  0  0  0
   -4.8637   -2.4849    0.3195 H   0  0  0  0  0  0  0  0  0  0  0  0
   -2.8374   -3.3254   -0.8547 H   0  0  0  0  0  0  0  0  0  0  0  0
   -0.8931   -1.8067   -1.2514 H   0  0  0  0  0  0  0  0  0  0  0  0
  1  2  1  0
  2  3  1  0
  3  4  1  0
  4  5  1  0
  5  6  1  0
  6  7  2  0
  7  8  1  0
  8  9  1  0
  9 10  2  0
 10 11  1  0
 11 12  2  0
 12 13  1  0
 13 14  2  0
 14  6  1  0
 14  9  1  0
  1 15  1  0
  1 16  1  0
  2 17  1  0
  2 18  1  0
  3 19  1  0
  3 20  1  0
  4 21  1  0
  4 22  1  0
  5 23  1  0
  5 24  1  0
  7 25  1  0
  8 26  1  0
 10 27  1  0
 11 28  1  0
 12 29  1  0
 13 30  1  0
M  CHG  1   2   1
M  END
>  <UniqueID>  (42) 
41

>  <SMILES>  (42) 
N[NH2+]CCCc1c[nH]c2ccccc12

>  <Energy>  (42) 
56.739884236524546

>  <Genealogy>  (42) 
N[NH2+]CCCc1c[nH]c2ccccc12 (protonated)
N[NH2+]CCCc1c[nH]c2ccccc12 (3D coordinates assigned)
N[NH2+]CCCc1c[nH]c2ccccc12 (optimized conformer: 56.739884236524546 kcal/mol)

$$$$
untitled_line_42
     RDKit          3D

 41 44  0  0  0  0  0  0  0  0999 V2000
    2.6953    1.9710    1.0699 O   0  0  0  0  0  0  0  0  0  0  0  0
    2.7044    0.9410    0.3422 C   0  0  0  0  0  0  0  0  0  0  0  0
    1.4441    0.4719   -0.2934 C   0  0  0  0  0  0  0  0  0  0  0  0
    0.2064    1.1807   -0.0632 N   0  0  0  0  0  4  0  0  0  0  0  0
   -0.4539    0.6595    1.1443 C   0  0  0  0  0  0  0  0  0  0  0  0
   -1.7403    1.4340    1.4674 C   0  0  0  0  0  0  0  0  0  0  0  0
   -2.7973    1.2199    0.4234 C   0  0  0  0  0  0  0  0  0  0  0  0
   -3.1263    2.0869   -0.6145 C   0  0  0  0  0  0  0  0  0  0  0  0
   -4.0819    1.5405   -1.4007 N   0  0  0  0  0  0  0  0  0  0  0  0
   -4.3524    0.3339   -0.8729 C   0  0  0  0  0  0  0  0  0  0  0  0
   -5.2625   -0.6106   -1.3456 C   0  0  0  0  0  0  0  0  0  0  0  0
   -5.3757   -1.8240   -0.6424 C   0  0  0  0  0  0  0  0  0  0  0  0
   -4.5843   -2.0642    0.5030 C   0  0  0  0  0  0  0  0  0  0  0  0
   -3.6730   -1.0930    0.9563 C   0  0  0  0  0  0  0  0  0  0  0  0
   -3.5854    0.1009    0.2400 C   0  0  0  0  0  0  0  0  0  0  0  0
    1.4488   -0.6491   -1.0384 C   0  0  0  0  0  0  0  0  0  0  0  0
    2.6852   -1.4163   -1.2714 C   0  0  0  0  0  0  0  0  0  0  0  0
    2.6444   -2.4557   -1.9822 O   0  0  0  0  0  0  0  0  0  0  0  0
    3.9589   -0.9649   -0.6711 C   0  0  0  0  0  0  0  0  0  0  0  0
    5.1185   -1.6581   -0.8762 N   0  0  0  0  0  4  0  0  0  0  0  0
    6.2957   -1.2532   -0.3265 C   0  0  0  0  0  0  0  0  0  0  0  0
    6.3441   -0.1078    0.4684 C   0  0  0  0  0  0  0  0  0  0  0  0
    5.1759    0.6191    0.6949 C   0  0  0  0  0  0  0  0  0  0  0  0
    3.9664    0.1961    0.1244 C   0  0  0  0  0  0  0  0  0  0  0  0
   -0.4237    1.0710   -0.8922 H   0  0  0  0  0  0  0  0  0  0  0  0
    0.4018    2.2024    0.0514 H   0  0  0  0  0  0  0  0  0  0  0  0
    0.2299    0.7529    2.0181 H   0  0  0  0  0  0  0  0  0  0  0  0
   -0.6941   -0.4204    1.0159 H   0  0  0  0  0  0  0  0  0  0  0  0
   -2.1321    1.0913    2.4490 H   0  0  0  0  0  0  0  0  0  0  0  0
   -1.5146    2.5184    1.5603 H   0  0  0  0  0  0  0  0  0  0  0  0
   -2.6810    3.0574   -0.7911 H   0  0  0  0  0  0  0  0  0  0  0  0
   -4.5107    1.9677   -2.2516 H   0  0  0  0  0  0  0  0  0  0  0  0
   -5.8615   -0.4191   -2.2265 H   0  0  0  0  0  0  0  0  0  0  0  0
   -6.0725   -2.5790   -0.9825 H   0  0  0  0  0  0  0  0  0  0  0  0
   -4.6788   -3.0018    1.0350 H   0  0  0  0  0  0  0  0  0  0  0  0
   -3.0625   -1.2708    1.8320 H   0  0  0  0  0  0  0  0  0  0  0  0
    0.5264   -1.0079   -1.4798 H   0  0  0  0  0  0  0  0  0  0  0  0
    5.1194   -2.5208   -1.4656 H   0  0  0  0  0  0  0  0  0  0  0  0
    7.2001   -1.8212   -0.5053 H   0  0  0  0  0  0  0  0  0  0  0  0
    7.2805    0.2137    0.9056 H   0  0  0  0  0  0  0  0  0  0  0  0
    5.2183    1.5075    1.3124 H   0  0  0  0  0  0  0  0  0  0  0  0
  1  2  2  0
  2  3  1  0
  3  4  1  0
  4  5  1  0
  5  6  1  0
  6  7  1  0
  7  8  2  0
  8  9  1  0
  9 10  1  0
 10 11  2  0
 11 12  1  0
 12 13  2  0
 13 14  1  0
 14 15  2  0
  3 16  2  0
 16 17  1  0
 17 18  2  0
 17 19  1  0
 19 20  2  0
 20 21  1  0
 21 22  2  0
 22 23  1  0
 23 24  2  0
 24  2  1  0
 15  7  1  0
 24 19  1  0
 15 10  1  0
  4 25  1  0
  4 26  1  0
  5 27  1  0
  5 28  1  0
  6 29  1  0
  6 30  1  0
  8 31  1  0
  9 32  1  0
 11 33  1  0
 12 34  1  0
 13 35  1  0
 14 36  1  0
 16 37  1  0
 20 38  1  0
 21 39  1  0
 22 40  1  0
 23 41  1  0
M  CHG  2   4   1  20   1
M  END
>  <UniqueID>  (43) 
42

>  <SMILES>  (43) 
O=C1C([NH2+]CCc2c[nH]c3ccccc23)=CC(=O)c2[nH+]cccc21

>  <Energy>  (43) 
77.24239180853819

>  <Genealogy>  (43) 
O=C1C([NH2+]CCc2c[nH]c3ccccc23)=CC(=O)c2[nH+]cccc21 (protonated)
O=C1C([NH2+]CCc2c[nH]c3ccccc23)=CC(=O)c2[nH+]cccc21 (3D coordinates assigned)
O=C1C([NH2+]CCc2c[nH]c3ccccc23)=CC(=O)c2[nH+]cccc21 (nonaromatic ring conformer: 77.24239180853819 kcal/mol)

$$$$
untitled_line_43
     RDKit          3D

 38 39  0  0  0  0  0  0  0  0999 V2000
   -4.3121   -0.0479    0.7902 C   0  0  0  0  0  0  0  0  0  0  0  0
   -4.5172    0.1639   -0.7175 C   0  0  0  0  0  0  0  0  0  0  0  0
   -5.8872    0.8033   -0.9748 C   0  0  0  0  0  0  0  0  0  0  0  0
   -3.4009    1.0374   -1.3261 C   0  0  0  0  0  0  0  0  0  0  0  0
   -2.0669    0.3492   -1.2799 C   0  0  0  0  0  0  0  0  0  0  0  0
   -1.7825   -0.5101   -2.1581 O   0  0  0  0  0  0  0  0  0  0  0  0
   -1.1399    0.6386   -0.2254 N   0  0  0  0  0  0  0  0  0  0  0  0
    0.1457   -0.0516   -0.1309 C   0  0  0  0  0  0  0  0  0  0  0  0
    0.9320    0.4258    1.0923 C   0  0  0  0  0  0  0  0  0  0  0  0
    2.2470   -0.2882    1.1856 C   0  0  0  0  0  0  0  0  0  0  0  0
    2.5111   -1.4489    1.9066 C   0  0  0  0  0  0  0  0  0  0  0  0
    3.7861   -1.8519    1.7015 N   0  0  0  0  0  0  0  0  0  0  0  0
    4.3240   -0.9634    0.8477 C   0  0  0  0  0  0  0  0  0  0  0  0
    5.6159   -0.9704    0.3233 C   0  0  0  0  0  0  0  0  0  0  0  0
    5.9652    0.0522   -0.5779 C   0  0  0  0  0  0  0  0  0  0  0  0
    5.0250    1.0449   -0.9336 C   0  0  0  0  0  0  0  0  0  0  0  0
    3.7275    1.0256   -0.3902 C   0  0  0  0  0  0  0  0  0  0  0  0
    3.4129    0.0029    0.5050 C   0  0  0  0  0  0  0  0  0  0  0  0
   -4.2720    0.9273    1.3216 H   0  0  0  0  0  0  0  0  0  0  0  0
   -5.1456   -0.6504    1.2102 H   0  0  0  0  0  0  0  0  0  0  0  0
   -3.3687   -0.6013    0.9806 H   0  0  0  0  0  0  0  0  0  0  0  0
   -4.5090   -0.8311   -1.2161 H   0  0  0  0  0  0  0  0  0  0  0  0
   -6.0597    0.9158   -2.0665 H   0  0  0  0  0  0  0  0  0  0  0  0
   -5.9485    1.8048   -0.4966 H   0  0  0  0  0  0  0  0  0  0  0  0
   -6.6950    0.1598   -0.5653 H   0  0  0  0  0  0  0  0  0  0  0  0
   -3.3437    2.0122   -0.7940 H   0  0  0  0  0  0  0  0  0  0  0  0
   -3.6393    1.2582   -2.3897 H   0  0  0  0  0  0  0  0  0  0  0  0
   -1.4047    1.3492    0.4946 H   0  0  0  0  0  0  0  0  0  0  0  0
    0.7350    0.1481   -1.0526 H   0  0  0  0  0  0  0  0  0  0  0  0
   -0.0330   -1.1465   -0.0504 H   0  0  0  0  0  0  0  0  0  0  0  0
    0.3413    0.2316    2.0139 H   0  0  0  0  0  0  0  0  0  0  0  0
    1.1100    1.5205    1.0215 H   0  0  0  0  0  0  0  0  0  0  0  0
    1.8055   -1.9748    2.5366 H   0  0  0  0  0  0  0  0  0  0  0  0
    4.2498   -2.6922    2.1128 H   0  0  0  0  0  0  0  0  0  0  0  0
    6.3272   -1.7388    0.5970 H   0  0  0  0  0  0  0  0  0  0  0  0
    6.9598    0.0763   -1.0037 H   0  0  0  0  0  0  0  0  0  0  0  0
    5.3040    1.8247   -1.6303 H   0  0  0  0  0  0  0  0  0  0  0  0
    3.0010    1.7804   -0.6615 H   0  0  0  0  0  0  0  0  0  0  0  0
  1  2  1  0
  2  3  1  0
  2  4  1  0
  4  5  1  0
  5  6  2  0
  5  7  1  0
  7  8  1  0
  8  9  1  0
  9 10  1  0
 10 11  2  0
 11 12  1  0
 12 13  1  0
 13 14  2  0
 14 15  1  0
 15 16  2  0
 16 17  1  0
 17 18  2  0
 18 10  1  0
 18 13  1  0
  1 19  1  0
  1 20  1  0
  1 21  1  0
  2 22  1  0
  3 23  1  0
  3 24  1  0
  3 25  1  0
  4 26  1  0
  4 27  1  0
  7 28  1  0
  8 29  1  0
  8 30  1  0
  9 31  1  0
  9 32  1  0
 11 33  1  0
 12 34  1  0
 14 35  1  0
 15 36  1  0
 16 37  1  0
 17 38  1  0
M  END
>  <UniqueID>  (44) 
43

>  <SMILES>  (44) 
CC(C)CC(=O)NCCc1c[nH]c2ccccc12

>  <Energy>  (44) 
57.98146787160527

>  <Genealogy>  (44) 
CC(C)CC(=O)NCCc1c[nH]c2ccccc12 (3D coordinates assigned)
CC(C)CC(=O)NCCc1c[nH]c2ccccc12 (optimized conformer: 57.98146787160527 kcal/mol)

$$$$
untitled_line_44
     RDKit          3D

 32 33  0  0  0  0  0  0  0  0999 V2000
    4.0235   -1.7418   -3.2331 C   0  0  0  0  0  0  0  0  0  0  0  0
    3.1590   -0.9388   -2.3168 C   0  0  0  0  0  0  0  0  0  0  0  0
    3.1713    0.3200   -2.3903 O   0  0  0  0  0  0  0  0  0  0  0  0
    2.3055   -1.6010   -1.3757 N   0  0  0  0  0  0  0  0  0  0  0  0
    1.4399   -0.8470   -0.4698 C   0  0  0  0  0  0  0  0  0  0  0  0
    0.6348   -1.7933    0.4311 C   0  0  0  0  0  0  0  0  0  0  0  0
   -0.2195   -1.0379    1.4580 C   0  0  0  0  0  0  0  0  0  0  0  0
   -1.3387   -0.2787    0.8047 C   0  0  0  0  0  0  0  0  0  0  0  0
   -2.5446   -0.8098    0.3568 C   0  0  0  0  0  0  0  0  0  0  0  0
   -3.2909    0.1485   -0.2380 N   0  0  0  0  0  0  0  0  0  0  0  0
   -2.5629    1.2772   -0.1783 C   0  0  0  0  0  0  0  0  0  0  0  0
   -2.9077    2.5316   -0.6797 C   0  0  0  0  0  0  0  0  0  0  0  0
   -1.9810    3.5788   -0.5255 C   0  0  0  0  0  0  0  0  0  0  0  0
   -0.7435    3.3507    0.1161 C   0  0  0  0  0  0  0  0  0  0  0  0
   -0.4217    2.0740    0.6113 C   0  0  0  0  0  0  0  0  0  0  0  0
   -1.3626    1.0562    0.4479 C   0  0  0  0  0  0  0  0  0  0  0  0
    4.6226   -2.4656   -2.6422 H   0  0  0  0  0  0  0  0  0  0  0  0
    4.7151   -1.0808   -3.7976 H   0  0  0  0  0  0  0  0  0  0  0  0
    3.3853   -2.2964   -3.9520 H   0  0  0  0  0  0  0  0  0  0  0  0
    2.3083   -2.6465   -1.3488 H   0  0  0  0  0  0  0  0  0  0  0  0
    2.0666   -0.1789    0.1603 H   0  0  0  0  0  0  0  0  0  0  0  0
    0.7455   -0.2237   -1.0729 H   0  0  0  0  0  0  0  0  0  0  0  0
   -0.0162   -2.4434   -0.1942 H   0  0  0  0  0  0  0  0  0  0  0  0
    1.3422   -2.4501    0.9830 H   0  0  0  0  0  0  0  0  0  0  0  0
    0.4176   -0.3506    2.0547 H   0  0  0  0  0  0  0  0  0  0  0  0
   -0.6587   -1.7734    2.1658 H   0  0  0  0  0  0  0  0  0  0  0  0
   -2.8524   -1.8430    0.4516 H   0  0  0  0  0  0  0  0  0  0  0  0
   -4.2351    0.0285   -0.6676 H   0  0  0  0  0  0  0  0  0  0  0  0
   -3.8560    2.6954   -1.1750 H   0  0  0  0  0  0  0  0  0  0  0  0
   -2.2169    4.5650   -0.9037 H   0  0  0  0  0  0  0  0  0  0  0  0
   -0.0370    4.1631    0.2260 H   0  0  0  0  0  0  0  0  0  0  0  0
    0.5273    1.8934    1.0986 H   0  0  0  0  0  0  0  0  0  0  0  0
  1  2  1  0
  2  3  2  0
  2  4  1  0
  4  5  1  0
  5  6  1  0
  6  7  1  0
  7  8  1  0
  8  9  2  0
  9 10  1  0
 10 11  1  0
 11 12  2  0
 12 13  1  0
 13 14  2  0
 14 15  1  0
 15 16  2  0
 16  8  1  0
 16 11  1  0
  1 17  1  0
  1 18  1  0
  1 19  1  0
  4 20  1  0
  5 21  1  0
  5 22  1  0
  6 23  1  0
  6 24  1  0
  7 25  1  0
  7 26  1  0
  9 27  1  0
 10 28  1  0
 12 29  1  0
 13 30  1  0
 14 31  1  0
 15 32  1  0
M  END
>  <UniqueID>  (45) 
44

>  <SMILES>  (45) 
CC(=O)NCCCc1c[nH]c2ccccc12

>  <Energy>  (45) 
55.573497760028374

>  <Genealogy>  (45) 
CC(=O)NCCCc1c[nH]c2ccccc12 (3D coordinates assigned)
CC(=O)NCCCc1c[nH]c2ccccc12 (optimized conformer: 55.573497760028374 kcal/mol)

$$$$
untitled_line_45
     RDKit          3D

 30 31  0  0  0  0  0  0  0  0999 V2000
    5.1317    1.6663    0.7839 C   0  0  0  0  0  0  0  0  0  0  0  0
    5.3270   -0.1345    0.6163 S   0  0  0  0  0  0  0  0  0  0  0  0
    3.5980   -0.4653    0.9465 C   0  0  0  0  0  0  0  0  0  0  0  0
    3.2229   -0.6758    2.1309 O   0  0  0  0  0  0  0  0  0  0  0  0
    2.6574   -0.4915   -0.1317 N   0  0  0  0  0  0  0  0  0  0  0  0
    1.2353   -0.7389    0.1013 C   0  0  0  0  0  0  0  0  0  0  0  0
    0.4525   -0.6970   -1.2132 C   0  0  0  0  0  0  0  0  0  0  0  0
   -1.0051   -0.9480   -0.9674 C   0  0  0  0  0  0  0  0  0  0  0  0
   -1.6570   -2.1761   -1.0276 C   0  0  0  0  0  0  0  0  0  0  0  0
   -2.9557   -2.0385   -0.6749 N   0  0  0  0  0  0  0  0  0  0  0  0
   -3.1252   -0.7376   -0.3804 C   0  0  0  0  0  0  0  0  0  0  0  0
   -4.2944   -0.1149    0.0544 C   0  0  0  0  0  0  0  0  0  0  0  0
   -4.2421    1.2644    0.3277 C   0  0  0  0  0  0  0  0  0  0  0  0
   -3.0354    1.9811    0.1658 C   0  0  0  0  0  0  0  0  0  0  0  0
   -1.8703    1.3257   -0.2725 C   0  0  0  0  0  0  0  0  0  0  0  0
   -1.9550   -0.0407   -0.5411 C   0  0  0  0  0  0  0  0  0  0  0  0
    4.7737    1.9177    1.8042 H   0  0  0  0  0  0  0  0  0  0  0  0
    4.4093    2.0430    0.0296 H   0  0  0  0  0  0  0  0  0  0  0  0
    6.1135    2.1546    0.6166 H   0  0  0  0  0  0  0  0  0  0  0  0
    3.0094   -0.3179   -1.1008 H   0  0  0  0  0  0  0  0  0  0  0  0
    1.1112   -1.7379    0.5742 H   0  0  0  0  0  0  0  0  0  0  0  0
    0.8395    0.0363    0.7935 H   0  0  0  0  0  0  0  0  0  0  0  0
    0.8476   -1.4705   -1.9071 H   0  0  0  0  0  0  0  0  0  0  0  0
    0.5800    0.2960   -1.6956 H   0  0  0  0  0  0  0  0  0  0  0  0
   -1.2026   -3.1189   -1.3030 H   0  0  0  0  0  0  0  0  0  0  0  0
   -3.6739   -2.7951   -0.6276 H   0  0  0  0  0  0  0  0  0  0  0  0
   -5.2127   -0.6736    0.1814 H   0  0  0  0  0  0  0  0  0  0  0  0
   -5.1317    1.7789    0.6672 H   0  0  0  0  0  0  0  0  0  0  0  0
   -3.0064    3.0410    0.3822 H   0  0  0  0  0  0  0  0  0  0  0  0
   -0.9415    1.8676   -0.3946 H   0  0  0  0  0  0  0  0  0  0  0  0
  1  2  1  0
  2  3  1  0
  3  4  2  0
  3  5  1  0
  5  6  1  0
  6  7  1  0
  7  8  1  0
  8  9  2  0
  9 10  1  0
 10 11  1  0
 11 12  2  0
 12 13  1  0
 13 14  2  0
 14 15  1  0
 15 16  2  0
 16  8  1  0
 16 11  1  0
  1 17  1  0
  1 18  1  0
  1 19  1  0
  5 20  1  0
  6 21  1  0
  6 22  1  0
  7 23  1  0
  7 24  1  0
  9 25  1  0
 10 26  1  0
 12 27  1  0
 13 28  1  0
 14 29  1  0
 15 30  1  0
M  END
>  <UniqueID>  (46) 
45

>  <SMILES>  (46) 
CSC(=O)NCCc1c[nH]c2ccccc12

>  <Energy>  (46) 
52.89583645914242

>  <Genealogy>  (46) 
CSC(=O)NCCc1c[nH]c2ccccc12 (3D coordinates assigned)
CSC(=O)NCCc1c[nH]c2ccccc12 (optimized conformer: 52.89583645914242 kcal/mol)

$$$$
untitled_line_46
     RDKit          3D

 85 86  0  0  0  0  0  0  0  0999 V2000
    6.2663   -2.0806    2.3093 C   0  0  0  0  0  0  0  0  0  0  0  0
    5.3690   -2.6967    3.3820 C   0  0  0  0  0  0  0  0  0  0  0  0
    4.1013   -3.3419    2.8011 C   0  0  0  0  0  0  0  0  0  0  0  0
    3.1196   -2.3079    2.2294 C   0  0  0  0  0  0  0  0  0  0  0  0
    1.8157   -2.9830    1.7770 C   0  0  0  0  0  0  0  0  0  0  0  0
    0.7761   -1.9744    1.2636 C   0  0  0  0  0  0  0  0  0  0  0  0
    1.1290   -1.4166   -0.1245 C   0  0  0  0  0  0  0  0  0  0  0  0
    0.0188   -0.4905   -0.6365 C   0  0  0  0  0  0  0  0  0  0  0  0
    0.2062   -0.0750   -2.1055 C   0  0  0  0  0  0  0  0  0  0  0  0
    1.4935    0.7140   -2.4106 C   0  0  0  0  0  0  0  0  0  0  0  0
    1.6979    2.0070   -1.5953 C   0  0  0  0  0  0  0  0  0  0  0  0
    0.8866    3.2181   -2.0934 C   0  0  0  0  0  0  0  0  0  0  0  0
   -0.5979    3.1852   -1.6751 C   0  0  0  0  0  0  0  0  0  0  0  0
   -1.2021    4.5924   -1.5046 C   0  0  0  0  0  0  0  0  0  0  0  0
   -0.7852    5.3107   -0.2051 C   0  0  0  0  0  0  0  0  0  0  0  0
   -1.2926    4.6595    1.0973 C   0  0  0  0  0  0  0  0  0  0  0  0
   -2.8259    4.7220    1.2734 C   0  0  0  0  0  0  0  0  0  0  0  0
   -3.5586    3.4090    0.9412 C   0  0  0  0  0  0  0  0  0  0  0  0
   -3.2418    2.2752    1.9320 C   0  0  0  0  0  0  0  0  0  0  0  0
   -4.3271    1.1833    1.8934 C   0  0  0  0  0  0  0  0  0  0  0  0
   -3.9207   -0.0224    2.6454 N   0  0  0  0  0  4  0  0  0  0  0  0
   -3.1781   -0.9809    1.8035 C   0  0  0  0  0  0  0  0  0  0  0  0
   -4.1256   -1.9367    1.0580 C   0  0  0  0  0  0  0  0  0  0  0  0
   -3.3883   -2.6945   -0.0042 C   0  0  0  0  0  0  0  0  0  0  0  0
   -2.6349   -3.8506    0.1731 C   0  0  0  0  0  0  0  0  0  0  0  0
   -2.0088   -4.1866   -0.9777 N   0  0  0  0  0  0  0  0  0  0  0  0
   -2.3504   -3.2461   -1.8754 C   0  0  0  0  0  0  0  0  0  0  0  0
   -1.9076   -3.1353   -3.1928 C   0  0  0  0  0  0  0  0  0  0  0  0
   -2.3490   -2.0309   -3.9447 C   0  0  0  0  0  0  0  0  0  0  0  0
   -3.2041   -1.0670   -3.3662 C   0  0  0  0  0  0  0  0  0  0  0  0
   -3.6303   -1.2012   -2.0324 C   0  0  0  0  0  0  0  0  0  0  0  0
   -3.1890   -2.3155   -1.3173 C   0  0  0  0  0  0  0  0  0  0  0  0
    6.4761   -2.8181    1.5065 H   0  0  0  0  0  0  0  0  0  0  0  0
    7.2296   -1.7730    2.7664 H   0  0  0  0  0  0  0  0  0  0  0  0
    5.7914   -1.1791    1.8706 H   0  0  0  0  0  0  0  0  0  0  0  0
    5.0954   -1.9208    4.1291 H   0  0  0  0  0  0  0  0  0  0  0  0
    5.9503   -3.4824    3.9115 H   0  0  0  0  0  0  0  0  0  0  0  0
    4.3814   -4.0745    2.0126 H   0  0  0  0  0  0  0  0  0  0  0  0
    3.5989   -3.9034    3.6190 H   0  0  0  0  0  0  0  0  0  0  0  0
    3.5912   -1.8008    1.3624 H   0  0  0  0  0  0  0  0  0  0  0  0
    2.8888   -1.5468    3.0076 H   0  0  0  0  0  0  0  0  0  0  0  0
    1.3723   -3.5210    2.6439 H   0  0  0  0  0  0  0  0  0  0  0  0
    2.0312   -3.7371    0.9880 H   0  0  0  0  0  0  0  0  0  0  0  0
   -0.2026   -2.4983    1.1997 H   0  0  0  0  0  0  0  0  0  0  0  0
    0.6631   -1.1406    1.9918 H   0  0  0  0  0  0  0  0  0  0  0  0
    1.2636   -2.2604   -0.8369 H   0  0  0  0  0  0  0  0  0  0  0  0
    2.0766   -0.8427   -0.0633 H   0  0  0  0  0  0  0  0  0  0  0  0
   -0.0734    0.3972    0.0214 H   0  0  0  0  0  0  0  0  0  0  0  0
   -0.9439   -1.0301   -0.5723 H   0  0  0  0  0  0  0  0  0  0  0  0
    0.2128   -0.9934   -2.7311 H   0  0  0  0  0  0  0  0  0  0  0  0
   -0.6790    0.5039   -2.4301 H   0  0  0  0  0  0  0  0  0  0  0  0
    1.5110    0.9579   -3.4950 H   0  0  0  0  0  0  0  0  0  0  0  0
    2.3643    0.0466   -2.2347 H   0  0  0  0  0  0  0  0  0  0  0  0
    1.5401    1.8445   -0.5105 H   0  0  0  0  0  0  0  0  0  0  0  0
    2.7711    2.2780   -1.6984 H   0  0  0  0  0  0  0  0  0  0  0  0
    0.9621    3.3019   -3.1999 H   0  0  0  0  0  0  0  0  0  0  0  0
    1.3763    4.1245   -1.6811 H   0  0  0  0  0  0  0  0  0  0  0  0
   -0.7473    2.5898   -0.7533 H   0  0  0  0  0  0  0  0  0  0  0  0
   -1.1712    2.6808   -2.4806 H   0  0  0  0  0  0  0  0  0  0  0  0
   -0.8965    5.2206   -2.3700 H   0  0  0  0  0  0  0  0  0  0  0  0
   -2.3087    4.5280   -1.5498 H   0  0  0  0  0  0  0  0  0  0  0  0
   -1.1605    6.3564   -0.2493 H   0  0  0  0  0  0  0  0  0  0  0  0
    0.3207    5.3826   -0.1527 H   0  0  0  0  0  0  0  0  0  0  0  0
   -0.8386    5.2334    1.9351 H   0  0  0  0  0  0  0  0  0  0  0  0
   -0.9003    3.6298    1.2056 H   0  0  0  0  0  0  0  0  0  0  0  0
   -3.2502    5.5370    0.6480 H   0  0  0  0  0  0  0  0  0  0  0  0
   -3.0580    4.9945    2.3263 H   0  0  0  0  0  0  0  0  0  0  0  0
   -3.3164    3.0733   -0.0880 H   0  0  0  0  0  0  0  0  0  0  0  0
   -4.6490    3.6249    0.9701 H   0  0  0  0  0  0  0  0  0  0  0  0
   -3.1814    2.6760    2.9676 H   0  0  0  0  0  0  0  0  0  0  0  0
   -2.2568    1.8312    1.6751 H   0  0  0  0  0  0  0  0  0  0  0  0
   -5.2542    1.6014    2.3460 H   0  0  0  0  0  0  0  0  0  0  0  0
   -4.5726    0.9306    0.8370 H   0  0  0  0  0  0  0  0  0  0  0  0
   -4.7735   -0.4845    3.0405 H   0  0  0  0  0  0  0  0  0  0  0  0
   -3.3228    0.2506    3.4607 H   0  0  0  0  0  0  0  0  0  0  0  0
   -2.5291   -0.4419    1.0791 H   0  0  0  0  0  0  0  0  0  0  0  0
   -2.5028   -1.5910    2.4453 H   0  0  0  0  0  0  0  0  0  0  0  0
   -4.9612   -1.3751    0.5910 H   0  0  0  0  0  0  0  0  0  0  0  0
   -4.5694   -2.6551    1.7804 H   0  0  0  0  0  0  0  0  0  0  0  0
   -2.5272   -4.3963    1.1011 H   0  0  0  0  0  0  0  0  0  0  0  0
   -1.3649   -4.9949   -1.1264 H   0  0  0  0  0  0  0  0  0  0  0  0
   -1.2352   -3.8668   -3.6215 H   0  0  0  0  0  0  0  0  0  0  0  0
   -2.0213   -1.9126   -4.9698 H   0  0  0  0  0  0  0  0  0  0  0  0
   -3.5257   -0.2139   -3.9497 H   0  0  0  0  0  0  0  0  0  0  0  0
   -4.2704   -0.4561   -1.5791 H   0  0  0  0  0  0  0  0  0  0  0  0
  1  2  1  0
  2  3  1  0
  3  4  1  0
  4  5  1  0
  5  6  1  0
  6  7  1  0
  7  8  1  0
  8  9  1  0
  9 10  1  0
 10 11  1  0
 11 12  1  0
 12 13  1  0
 13 14  1  0
 14 15  1  0
 15 16  1  0
 16 17  1  0
 17 18  1  0
 18 19  1  0
 19 20  1  0
 20 21  1  0
 21 22  1  0
 22 23  1  0
 23 24  1  0
 24 25  2  0
 25 26  1  0
 26 27  1  0
 27 28  2  0
 28 29  1  0
 29 30  2  0
 30 31  1  0
 31 32  2  0
 32 24  1  0
 32 27  1  0
  1 33  1  0
  1 34  1  0
  1 35  1  0
  2 36  1  0
  2 37  1  0
  3 38  1  0
  3 39  1  0
  4 40  1  0
  4 41  1  0
  5 42  1  0
  5 43  1  0
  6 44  1  0
  6 45  1  0
  7 46  1  0
  7 47  1  0
  8 48  1  0
  8 49  1  0
  9 50  1  0
  9 51  1  0
 10 52  1  0
 10 53  1  0
 11 54  1  0
 11 55  1  0
 12 56  1  0
 12 57  1  0
 13 58  1  0
 13 59  1  0
 14 60  1  0
 14 61  1  0
 15 62  1  0
 15 63  1  0
 16 64  1  0
 16 65  1  0
 17 66  1  0
 17 67  1  0
 18 68  1  0
 18 69  1  0
 19 70  1  0
 19 71  1  0
 20 72  1  0
 20 73  1  0
 21 74  1  0
 21 75  1  0
 22 76  1  0
 22 77  1  0
 23 78  1  0
 23 79  1  0
 25 80  1  0
 26 81  1  0
 28 82  1  0
 29 83  1  0
 30 84  1  0
 31 85  1  0
M  CHG  1  21   1
M  END
>  <UniqueID>  (47) 
46

>  <SMILES>  (47) 
CCCCCCCCCCCCCCCCCCCC[NH2+]CCc1c[nH]c2ccccc12

>  <Energy>  (47) 
84.26971154672115

>  <Genealogy>  (47) 
CCCCCCCCCCCCCCCCCCCC[NH2+]CCc1c[nH]c2ccccc12 (protonated)
CCCCCCCCCCCCCCCCCCCC[NH2+]CCc1c[nH]c2ccccc12 (3D coordinates assigned)
CCCCCCCCCCCCCCCCCCCC[NH2+]CCc1c[nH]c2ccccc12 (optimized conformer: 84.26971154672115 kcal/mol)

$$$$
untitled_line_47
     RDKit          3D

 54 57  0  0  0  0  0  0  0  0999 V2000
    1.7736    2.5654   -2.9655 O   0  0  0  0  0  0  0  0  0  0  0  0
    2.0048    2.6714   -1.4840 S   0  0  0  0  0  6  0  0  0  0  0  0
    2.6962    3.9727   -1.1916 O   0  0  0  0  0  0  0  0  0  0  0  0
    3.0048    1.3555   -0.9549 N   0  0  0  0  0  0  0  0  0  0  0  0
    2.5235    0.0088   -0.8097 C   0  0  0  0  0  0  0  0  0  0  0  0
    3.1930   -0.8686    0.0547 C   0  0  0  0  0  0  0  0  0  0  0  0
    2.7253   -2.1696    0.2435 C   0  0  0  0  0  0  0  0  0  0  0  0
    1.5864   -2.6113   -0.4315 C   0  0  0  0  0  0  0  0  0  0  0  0
    0.9179   -1.7599   -1.3306 C   0  0  0  0  0  0  0  0  0  0  0  0
   -0.3640   -2.1907   -2.0228 C   0  0  1  0  0  0  0  0  0  0  0  0
   -0.4587   -3.5903   -2.1062 O   0  0  0  0  0  0  0  0  0  0  0  0
   -1.6100   -1.6299   -1.3059 C   0  0  0  0  0  0  0  0  0  0  0  0
   -1.6450   -2.0013    0.1186 N   0  0  0  0  0  4  0  0  0  0  0  0
   -2.8772   -1.5170    0.7606 C   0  0  0  0  0  0  0  0  0  0  0  0
   -2.9173   -1.8859    2.2529 C   0  0  0  0  0  0  0  0  0  0  0  0
   -1.8495   -1.1697    3.0303 C   0  0  0  0  0  0  0  0  0  0  0  0
   -1.8926    0.1539    3.4562 C   0  0  0  0  0  0  0  0  0  0  0  0
   -0.7023    0.5201    3.9840 N   0  0  0  0  0  0  0  0  0  0  0  0
    0.0974   -0.5551    3.8804 C   0  0  0  0  0  0  0  0  0  0  0  0
    1.4428   -0.6417    4.2326 C   0  0  0  0  0  0  0  0  0  0  0  0
    2.1094   -1.8553    3.9869 C   0  0  0  0  0  0  0  0  0  0  0  0
    1.4253   -2.9413    3.3981 C   0  0  0  0  0  0  0  0  0  0  0  0
    0.0705   -2.8212    3.0421 C   0  0  0  0  0  0  0  0  0  0  0  0
   -0.5669   -1.6074    3.3046 C   0  0  0  0  0  0  0  0  0  0  0  0
    1.3947   -0.4510   -1.5128 C   0  0  0  0  0  0  0  0  0  0  0  0
    0.4761    2.6411   -0.6233 C   0  0  0  0  0  0  0  0  0  0  0  0
    0.3236    2.7349    0.7507 C   0  0  0  0  0  0  0  0  0  0  0  0
   -1.0150    2.6739    1.1547 C   0  0  0  0  0  0  0  0  0  0  0  0
   -1.9100    2.5198    0.1026 C   0  0  0  0  0  0  0  0  0  0  0  0
   -1.0368    2.4727   -1.3345 S   0  0  0  0  0  0  0  0  0  0  0  0
    3.9503    1.5989   -0.5819 H   0  0  0  0  0  0  0  0  0  0  0  0
    4.0677   -0.5360    0.5990 H   0  0  0  0  0  0  0  0  0  0  0  0
    3.2396   -2.8332    0.9269 H   0  0  0  0  0  0  0  0  0  0  0  0
    1.2228   -3.6127   -0.2401 H   0  0  0  0  0  0  0  0  0  0  0  0
   -0.3656   -1.7736   -3.0574 H   0  0  0  0  0  0  0  0  0  0  0  0
    0.1987   -3.8811   -2.7911 H   0  0  0  0  0  0  0  0  0  0  0  0
   -1.6128   -0.5214   -1.4058 H   0  0  0  0  0  0  0  0  0  0  0  0
   -2.5168   -2.0157   -1.8242 H   0  0  0  0  0  0  0  0  0  0  0  0
   -0.8268   -1.5611    0.5949 H   0  0  0  0  0  0  0  0  0  0  0  0
   -1.5922   -3.0426    0.2119 H   0  0  0  0  0  0  0  0  0  0  0  0
   -3.7631   -1.9756    0.2672 H   0  0  0  0  0  0  0  0  0  0  0  0
   -2.9600   -0.4115    0.6544 H   0  0  0  0  0  0  0  0  0  0  0  0
   -2.8104   -2.9843    2.3772 H   0  0  0  0  0  0  0  0  0  0  0  0
   -3.9089   -1.6020    2.6661 H   0  0  0  0  0  0  0  0  0  0  0  0
   -2.7376    0.8220    3.3502 H   0  0  0  0  0  0  0  0  0  0  0  0
   -0.4473    1.4623    4.3548 H   0  0  0  0  0  0  0  0  0  0  0  0
    1.9614    0.2007    4.6707 H   0  0  0  0  0  0  0  0  0  0  0  0
    3.1544   -1.9548    4.2436 H   0  0  0  0  0  0  0  0  0  0  0  0
    1.9497   -3.8682    3.2075 H   0  0  0  0  0  0  0  0  0  0  0  0
   -0.4512   -3.6432    2.5705 H   0  0  0  0  0  0  0  0  0  0  0  0
    0.8754    0.2031   -2.1995 H   0  0  0  0  0  0  0  0  0  0  0  0
    1.1498    2.8483    1.4405 H   0  0  0  0  0  0  0  0  0  0  0  0
   -1.3245    2.7497    2.1873 H   0  0  0  0  0  0  0  0  0  0  0  0
   -2.9846    2.4481    0.1932 H   0  0  0  0  0  0  0  0  0  0  0  0
  1  2  2  0
  2  3  2  0
  2  4  1  0
  4  5  1  0
  5  6  2  0
  6  7  1  0
  7  8  2  0
  8  9  1  0
  9 10  1  0
 10 11  1  0
 10 12  1  0
 12 13  1  0
 13 14  1  0
 14 15  1  0
 15 16  1  0
 16 17  2  0
 17 18  1  0
 18 19  1  0
 19 20  2  0
 20 21  1  0
 21 22  2  0
 22 23  1  0
 23 24  2  0
  9 25  2  0
  2 26  1  0
 26 27  2  0
 27 28  1  0
 28 29  2  0
 29 30  1  0
 25  5  1  0
 30 26  1  0
 24 16  1  0
 24 19  1  0
  4 31  1  0
  6 32  1  0
  7 33  1  0
  8 34  1  0
 10 35  1  6
 11 36  1  0
 12 37  1  0
 12 38  1  0
 13 39  1  0
 13 40  1  0
 14 41  1  0
 14 42  1  0
 15 43  1  0
 15 44  1  0
 17 45  1  0
 18 46  1  0
 20 47  1  0
 21 48  1  0
 22 49  1  0
 23 50  1  0
 25 51  1  0
 27 52  1  0
 28 53  1  0
 29 54  1  0
M  CHG  1  13   1
M  END
>  <UniqueID>  (48) 
47

>  <SMILES>  (48) 
O=S(=O)(Nc1cccc([C@@H](O)C[NH2+]CCc2c[nH]c3ccccc23)c1)c1cccs1

>  <Energy>  (48) 
108.69631240952853

>  <Genealogy>  (48) 
O=S(=O)(Nc1cccc([C@@H](O)C[NH2+]CCc2c[nH]c3ccccc23)c1)c1cccs1 (protonated)
O=S(=O)(Nc1cccc([C@@H](O)C[NH2+]CCc2c[nH]c3ccccc23)c1)c1cccs1 (3D coordinates assigned)
O=S(=O)(Nc1cccc([C@@H](O)C[NH2+]CCc2c[nH]c3ccccc23)c1)c1cccs1 (optimized conformer: 108.69631240952853 kcal/mol)

$$$$
untitled_line_48
     RDKit          3D

 42 44  0  0  0  0  0  0  0  0999 V2000
    2.7726    0.8037   -0.1335 O   0  0  0  0  0  0  0  0  0  0  0  0
    2.1112   -0.1544   -0.9192 C   0  0  1  0  0  0  0  0  0  0  0  0
    1.3786   -1.1440    0.0109 C   0  0  0  0  0  0  0  0  0  0  0  0
    0.8105   -2.3055   -0.7132 N   0  0  0  0  0  4  0  0  0  0  0  0
   -0.6255   -2.1533   -1.0397 C   0  0  0  0  0  0  0  0  0  0  0  0
   -1.5531   -2.7902    0.0117 C   0  0  0  0  0  0  0  0  0  0  0  0
   -1.5524   -2.0255    1.3023 C   0  0  0  0  0  0  0  0  0  0  0  0
   -2.2041   -0.8193    1.5431 C   0  0  0  0  0  0  0  0  0  0  0  0
   -1.9137   -0.3649    2.7832 N   0  0  0  0  0  0  0  0  0  0  0  0
   -1.0773   -1.2679    3.3236 C   0  0  0  0  0  0  0  0  0  0  0  0
   -0.4811   -1.2177    4.5828 C   0  0  0  0  0  0  0  0  0  0  0  0
    0.3911   -2.2621    4.9397 C   0  0  0  0  0  0  0  0  0  0  0  0
    0.6476   -3.3194    4.0390 C   0  0  0  0  0  0  0  0  0  0  0  0
    0.0337   -3.3431    2.7736 C   0  0  0  0  0  0  0  0  0  0  0  0
   -0.8302   -2.2961    2.4493 C   0  0  0  0  0  0  0  0  0  0  0  0
    1.1457    0.5304   -1.8625 C   0  0  0  0  0  0  0  0  0  0  0  0
    0.2728    1.5283   -1.3916 C   0  0  0  0  0  0  0  0  0  0  0  0
   -0.6493    2.1244   -2.2561 C   0  0  0  0  0  0  0  0  0  0  0  0
   -0.7131    1.7284   -3.5942 C   0  0  0  0  0  0  0  0  0  0  0  0
    0.1452    0.7328   -4.0713 C   0  0  0  0  0  0  0  0  0  0  0  0
    0.0555    0.2280   -5.7486 Cl  0  0  0  0  0  0  0  0  0  0  0  0
    1.0705    0.1341   -3.2091 C   0  0  0  0  0  0  0  0  0  0  0  0
    3.4116    1.2737   -0.7313 H   0  0  0  0  0  0  0  0  0  0  0  0
    2.8768   -0.7238   -1.4972 H   0  0  0  0  0  0  0  0  0  0  0  0
    0.6059   -0.6004    0.5950 H   0  0  0  0  0  0  0  0  0  0  0  0
    2.1191   -1.5143    0.7556 H   0  0  0  0  0  0  0  0  0  0  0  0
    0.9546   -3.1675   -0.1376 H   0  0  0  0  0  0  0  0  0  0  0  0
    1.3406   -2.4678   -1.6012 H   0  0  0  0  0  0  0  0  0  0  0  0
   -0.9072   -1.0891   -1.1899 H   0  0  0  0  0  0  0  0  0  0  0  0
   -0.8291   -2.6629   -2.0082 H   0  0  0  0  0  0  0  0  0  0  0  0
   -2.5899   -2.7953   -0.3883 H   0  0  0  0  0  0  0  0  0  0  0  0
   -1.2702   -3.8499    0.1862 H   0  0  0  0  0  0  0  0  0  0  0  0
   -2.8377   -0.2939    0.8404 H   0  0  0  0  0  0  0  0  0  0  0  0
   -2.2559    0.5194    3.2206 H   0  0  0  0  0  0  0  0  0  0  0  0
   -0.6781   -0.3995    5.2634 H   0  0  0  0  0  0  0  0  0  0  0  0
    0.8711   -2.2535    5.9095 H   0  0  0  0  0  0  0  0  0  0  0  0
    1.3228   -4.1159    4.3233 H   0  0  0  0  0  0  0  0  0  0  0  0
    0.2308   -4.1495    2.0803 H   0  0  0  0  0  0  0  0  0  0  0  0
    0.2998    1.8360   -0.3537 H   0  0  0  0  0  0  0  0  0  0  0  0
   -1.3188    2.8905   -1.8869 H   0  0  0  0  0  0  0  0  0  0  0  0
   -1.4318    2.1923   -4.2577 H   0  0  0  0  0  0  0  0  0  0  0  0
    1.7222   -0.6444   -3.5862 H   0  0  0  0  0  0  0  0  0  0  0  0
  1  2  1  0
  2  3  1  0
  3  4  1  0
  4  5  1  0
  5  6  1  0
  6  7  1  0
  7  8  2  0
  8  9  1  0
  9 10  1  0
 10 11  2  0
 11 12  1  0
 12 13  2  0
 13 14  1  0
 14 15  2  0
  2 16  1  0
 16 17  2  0
 17 18  1  0
 18 19  2  0
 19 20  1  0
 20 21  1  0
 20 22  2  0
 15  7  1  0
 22 16  1  0
 15 10  1  0
  1 23  1  0
  2 24  1  6
  3 25  1  0
  3 26  1  0
  4 27  1  0
  4 28  1  0
  5 29  1  0
  5 30  1  0
  6 31  1  0
  6 32  1  0
  8 33  1  0
  9 34  1  0
 11 35  1  0
 12 36  1  0
 13 37  1  0
 14 38  1  0
 17 39  1  0
 18 40  1  0
 19 41  1  0
 22 42  1  0
M  CHG  1   4   1
M  END
>  <UniqueID>  (49) 
48

>  <SMILES>  (49) 
O[C@@H](C[NH2+]CCc1c[nH]c2ccccc12)c1cccc(Cl)c1

>  <Energy>  (49) 
75.26912166684109

>  <Genealogy>  (49) 
OC(C[NH2+]CCc1c[nH]c2ccccc12)c1cccc(Cl)c1 (protonated)
O[C@@H](C[NH2+]CCc1c[nH]c2ccccc12)c1cccc(Cl)c1 (chirality)
O[C@@H](C[NH2+]CCc1c[nH]c2ccccc12)c1cccc(Cl)c1 (3D coordinates assigned)
O[C@@H](C[NH2+]CCc1c[nH]c2ccccc12)c1cccc(Cl)c1 (optimized conformer: 75.26912166684109 kcal/mol)

$$$$
untitled_line_49
     RDKit          3D

 37 39  0  0  0  0  0  0  0  0999 V2000
    2.4712   -0.0445   -1.7435 O   0  0  0  0  0  0  0  0  0  0  0  0
    1.6301   -0.5584   -0.9557 C   0  0  0  0  0  0  0  0  0  0  0  0
    0.2442   -0.5904   -1.3081 N   0  0  0  0  0  0  0  0  0  0  0  0
   -0.2445    0.0048   -2.5527 C   0  0  0  0  0  0  0  0  0  0  0  0
   -1.7713   -0.0802   -2.6592 C   0  0  0  0  0  0  0  0  0  0  0  0
   -2.4430    0.7705   -1.6190 C   0  0  0  0  0  0  0  0  0  0  0  0
   -2.5247    2.1600   -1.6198 C   0  0  0  0  0  0  0  0  0  0  0  0
   -3.1545    2.5972   -0.5058 N   0  0  0  0  0  0  0  0  0  0  0  0
   -3.4667    1.4972    0.2009 C   0  0  0  0  0  0  0  0  0  0  0  0
   -4.1130    1.4428    1.4351 C   0  0  0  0  0  0  0  0  0  0  0  0
   -4.3281    0.1771    2.0096 C   0  0  0  0  0  0  0  0  0  0  0  0
   -3.8988   -0.9929    1.3450 C   0  0  0  0  0  0  0  0  0  0  0  0
   -3.2491   -0.9082    0.1004 C   0  0  0  0  0  0  0  0  0  0  0  0
   -3.0474    0.3612   -0.4446 C   0  0  0  0  0  0  0  0  0  0  0  0
    2.0411   -1.1520    0.2447 O   0  0  0  0  0  0  0  0  0  0  0  0
    3.2850   -0.9552    0.8630 C   0  0  0  0  0  0  0  0  0  0  0  0
    3.7998   -1.9798    1.6684 C   0  0  0  0  0  0  0  0  0  0  0  0
    5.0314   -1.8242    2.3121 C   0  0  0  0  0  0  0  0  0  0  0  0
    5.7532   -0.6369    2.1644 C   0  0  0  0  0  0  0  0  0  0  0  0
    5.2395    0.3995    1.3805 C   0  0  0  0  0  0  0  0  0  0  0  0
    4.0083    0.2468    0.7345 C   0  0  0  0  0  0  0  0  0  0  0  0
   -0.4184   -1.0525   -0.6460 H   0  0  0  0  0  0  0  0  0  0  0  0
    0.2052   -0.5359   -3.4131 H   0  0  0  0  0  0  0  0  0  0  0  0
    0.0743    1.0689   -2.6084 H   0  0  0  0  0  0  0  0  0  0  0  0
   -2.0980   -1.1378   -2.5713 H   0  0  0  0  0  0  0  0  0  0  0  0
   -2.0807    0.2794   -3.6641 H   0  0  0  0  0  0  0  0  0  0  0  0
   -2.1330    2.8142   -2.3883 H   0  0  0  0  0  0  0  0  0  0  0  0
   -3.3481    3.5900   -0.2466 H   0  0  0  0  0  0  0  0  0  0  0  0
   -4.4354    2.3452    1.9384 H   0  0  0  0  0  0  0  0  0  0  0  0
   -4.8239    0.0996    2.9683 H   0  0  0  0  0  0  0  0  0  0  0  0
   -4.0699   -1.9614    1.7968 H   0  0  0  0  0  0  0  0  0  0  0  0
   -2.9174   -1.8027   -0.4098 H   0  0  0  0  0  0  0  0  0  0  0  0
    3.2459   -2.9021    1.7891 H   0  0  0  0  0  0  0  0  0  0  0  0
    5.4257   -2.6238    2.9261 H   0  0  0  0  0  0  0  0  0  0  0  0
    6.7052   -0.5165    2.6649 H   0  0  0  0  0  0  0  0  0  0  0  0
    5.7921    1.3245    1.2799 H   0  0  0  0  0  0  0  0  0  0  0  0
    3.6136    1.0763    0.1642 H   0  0  0  0  0  0  0  0  0  0  0  0
  1  2  2  0
  2  3  1  0
  3  4  1  0
  4  5  1  0
  5  6  1  0
  6  7  2  0
  7  8  1  0
  8  9  1  0
  9 10  2  0
 10 11  1  0
 11 12  2  0
 12 13  1  0
 13 14  2  0
  2 15  1  0
 15 16  1  0
 16 17  2  0
 17 18  1  0
 18 19  2  0
 19 20  1  0
 20 21  2  0
 14  6  1  0
 21 16  1  0
 14  9  1  0
  3 22  1  0
  4 23  1  0
  4 24  1  0
  5 25  1  0
  5 26  1  0
  7 27  1  0
  8 28  1  0
 10 29  1  0
 11 30  1  0
 12 31  1  0
 13 32  1  0
 17 33  1  0
 18 34  1  0
 19 35  1  0
 20 36  1  0
 21 37  1  0
M  END
>  <UniqueID>  (50) 
49

>  <SMILES>  (50) 
O=C(NCCc1c[nH]c2ccccc12)Oc1ccccc1

>  <Energy>  (50) 
71.49379584235906

>  <Genealogy>  (50) 
O=C(NCCc1c[nH]c2ccccc12)Oc1ccccc1 (3D coordinates assigned)
O=C(NCCc1c[nH]c2ccccc12)Oc1ccccc1 (optimized conformer: 71.49379584235906 kcal/mol)

$$$$
untitled_line_50
     RDKit          3D

 30 31  0  0  0  0  0  0  0  0999 V2000
    3.9492   -1.4064   -3.2717 C   0  0  0  0  0  0  0  0  0  0  0  0
    3.1278   -1.8574   -2.2014 O   0  0  0  0  0  0  0  0  0  0  0  0
    2.2395   -1.0149   -1.5272 C   0  0  0  0  0  0  0  0  0  0  0  0
    2.1364    0.1997   -1.8547 O   0  0  0  0  0  0  0  0  0  0  0  0
    1.4464   -1.5436   -0.4603 N   0  0  0  0  0  0  0  0  0  0  0  0
    0.5005   -0.7077    0.2780 C   0  0  0  0  0  0  0  0  0  0  0  0
   -0.2158   -1.5200    1.3596 C   0  0  0  0  0  0  0  0  0  0  0  0
   -1.1832   -0.6576    2.1135 C   0  0  0  0  0  0  0  0  0  0  0  0
   -0.9315    0.0338    3.2948 C   0  0  0  0  0  0  0  0  0  0  0  0
   -2.0102    0.7687    3.6502 N   0  0  0  0  0  0  0  0  0  0  0  0
   -2.9347    0.5571    2.6971 C   0  0  0  0  0  0  0  0  0  0  0  0
   -4.2094    1.1162    2.6171 C   0  0  0  0  0  0  0  0  0  0  0  0
   -5.0108    0.7707    1.5134 C   0  0  0  0  0  0  0  0  0  0  0  0
   -4.5242   -0.1126    0.5240 C   0  0  0  0  0  0  0  0  0  0  0  0
   -3.2326   -0.6601    0.6299 C   0  0  0  0  0  0  0  0  0  0  0  0
   -2.4643   -0.3034    1.7383 C   0  0  0  0  0  0  0  0  0  0  0  0
    4.6250   -0.5990   -2.9183 H   0  0  0  0  0  0  0  0  0  0  0  0
    3.3171   -1.0297   -4.1036 H   0  0  0  0  0  0  0  0  0  0  0  0
    4.5633   -2.2528   -3.6417 H   0  0  0  0  0  0  0  0  0  0  0  0
    1.5582   -2.5543   -0.2173 H   0  0  0  0  0  0  0  0  0  0  0  0
    1.0504    0.1349    0.7520 H   0  0  0  0  0  0  0  0  0  0  0  0
   -0.2489   -0.2920   -0.4309 H   0  0  0  0  0  0  0  0  0  0  0  0
   -0.7624   -2.3679    0.8933 H   0  0  0  0  0  0  0  0  0  0  0  0
    0.5321   -1.9397    2.0670 H   0  0  0  0  0  0  0  0  0  0  0  0
   -0.0064    0.0088    3.8558 H   0  0  0  0  0  0  0  0  0  0  0  0
   -2.0974    1.3859    4.4880 H   0  0  0  0  0  0  0  0  0  0  0  0
   -4.5711    1.7969    3.3769 H   0  0  0  0  0  0  0  0  0  0  0  0
   -6.0054    1.1870    1.4204 H   0  0  0  0  0  0  0  0  0  0  0  0
   -5.1484   -0.3686   -0.3222 H   0  0  0  0  0  0  0  0  0  0  0  0
   -2.8519   -1.3340   -0.1266 H   0  0  0  0  0  0  0  0  0  0  0  0
  1  2  1  0
  2  3  1  0
  3  4  2  0
  3  5  1  0
  5  6  1  0
  6  7  1  0
  7  8  1  0
  8  9  2  0
  9 10  1  0
 10 11  1  0
 11 12  2  0
 12 13  1  0
 13 14  2  0
 14 15  1  0
 15 16  2  0
 16  8  1  0
 16 11  1  0
  1 17  1  0
  1 18  1  0
  1 19  1  0
  5 20  1  0
  6 21  1  0
  6 22  1  0
  7 23  1  0
  7 24  1  0
  9 25  1  0
 10 26  1  0
 12 27  1  0
 13 28  1  0
 14 29  1  0
 15 30  1  0
M  END
>  <UniqueID>  (51) 
50

>  <SMILES>  (51) 
COC(=O)NCCc1c[nH]c2ccccc12

>  <Energy>  (51) 
54.86200859529214

>  <Genealogy>  (51) 
COC(=O)NCCc1c[nH]c2ccccc12 (3D coordinates assigned)
COC(=O)NCCc1c[nH]c2ccccc12 (optimized conformer: 54.86200859529214 kcal/mol)

$$$$
untitled_line_51
     RDKit          3D

 60 63  0  0  0  0  0  0  0  0999 V2000
    2.2170    0.1213   -3.3048 C   0  0  0  0  0  0  0  0  0  0  0  0
    1.2642   -0.6129   -2.4572 N   0  0  1  0  0  4  0  0  0  0  0  0
    0.0647    0.2149   -2.1765 C   0  0  0  0  0  0  0  0  0  0  0  0
   -0.5424   -0.0983   -0.7903 C   0  0  1  0  0  0  0  0  0  0  0  0
    0.2954    0.4166    0.2136 O   0  0  0  0  0  0  0  0  0  0  0  0
   -1.9746    0.4626   -0.6368 C   0  0  0  0  0  0  0  0  0  0  0  0
   -2.0125    1.9365   -0.6868 N   0  0  0  0  0  4  0  0  0  0  0  0
   -3.3745    2.4721   -0.4928 C   0  0  0  0  0  0  0  0  0  0  0  0
   -3.9088    2.3235    0.9461 C   0  0  0  0  0  0  0  0  0  0  0  0
   -3.0057    2.9591    1.9625 C   0  0  0  0  0  0  0  0  0  0  0  0
   -2.0838    2.3056    2.7753 C   0  0  0  0  0  0  0  0  0  0  0  0
   -1.3944    3.1997    3.5200 N   0  0  0  0  0  0  0  0  0  0  0  0
   -1.8673    4.4110    3.1784 C   0  0  0  0  0  0  0  0  0  0  0  0
   -1.4537    5.6488    3.6691 C   0  0  0  0  0  0  0  0  0  0  0  0
   -2.0786    6.8010    3.1576 C   0  0  0  0  0  0  0  0  0  0  0  0
   -3.0895    6.6915    2.1768 C   0  0  0  0  0  0  0  0  0  0  0  0
   -3.4854    5.4291    1.6988 C   0  0  0  0  0  0  0  0  0  0  0  0
   -2.8498    4.3053    2.2272 C   0  0  0  0  0  0  0  0  0  0  0  0
    0.8234   -2.1065   -3.2618 S   0  0  0  0  0  6  0  0  0  0  0  0
    0.3900   -1.8050   -4.6710 O   0  0  0  0  0  0  0  0  0  0  0  0
   -0.3252   -2.7807   -2.5645 O   0  0  0  0  0  0  0  0  0  0  0  0
    2.2157   -3.2089   -3.2842 C   0  0  0  0  0  0  0  0  0  0  0  0
    2.8506   -3.4494   -4.5141 C   0  0  0  0  0  0  0  0  0  0  0  0
    3.9536   -4.2979   -4.5973 C   0  0  0  0  0  0  0  0  0  0  0  0
    4.4483   -4.9209   -3.4546 C   0  0  0  0  0  0  0  0  0  0  0  0
    3.8423   -4.6954   -2.2122 C   0  0  0  0  0  0  0  0  0  0  0  0
    4.3446   -5.3171   -1.0600 C   0  0  0  0  0  0  0  0  0  0  0  0
    3.7625   -5.0962    0.1478 N   0  0  0  0  0  4  0  0  0  0  0  0
    2.6880   -4.2755    0.2781 C   0  0  0  0  0  0  0  0  0  0  0  0
    2.1485   -3.6335   -0.8377 C   0  0  0  0  0  0  0  0  0  0  0  0
    2.7186   -3.8344   -2.1105 C   0  0  0  0  0  0  0  0  0  0  0  0
    1.7393    0.4456   -4.2556 H   0  0  0  0  0  0  0  0  0  0  0  0
    2.5947    1.0210   -2.7710 H   0  0  0  0  0  0  0  0  0  0  0  0
    3.0989   -0.5126   -3.5419 H   0  0  0  0  0  0  0  0  0  0  0  0
    1.7613   -0.8473   -1.5672 H   0  0  0  0  0  0  0  0  0  0  0  0
   -0.7015    0.0731   -2.9716 H   0  0  0  0  0  0  0  0  0  0  0  0
    0.3267    1.2975   -2.1874 H   0  0  0  0  0  0  0  0  0  0  0  0
   -0.6102   -1.2023   -0.6744 H   0  0  0  0  0  0  0  0  0  0  0  0
    0.0296   -0.0213    1.0642 H   0  0  0  0  0  0  0  0  0  0  0  0
   -2.3653    0.0997    0.3367 H   0  0  0  0  0  0  0  0  0  0  0  0
   -2.6213    0.0364   -1.4365 H   0  0  0  0  0  0  0  0  0  0  0  0
   -1.3574    2.3471    0.0166 H   0  0  0  0  0  0  0  0  0  0  0  0
   -1.6972    2.2478   -1.6341 H   0  0  0  0  0  0  0  0  0  0  0  0
   -3.3756    3.5538   -0.7544 H   0  0  0  0  0  0  0  0  0  0  0  0
   -4.0832    1.9776   -1.1942 H   0  0  0  0  0  0  0  0  0  0  0  0
   -4.9051    2.8119    1.0043 H   0  0  0  0  0  0  0  0  0  0  0  0
   -4.0716    1.2556    1.1981 H   0  0  0  0  0  0  0  0  0  0  0  0
   -1.9170    1.2367    2.8074 H   0  0  0  0  0  0  0  0  0  0  0  0
   -0.6390    2.9884    4.2093 H   0  0  0  0  0  0  0  0  0  0  0  0
   -0.6755    5.7227    4.4176 H   0  0  0  0  0  0  0  0  0  0  0  0
   -1.7815    7.7776    3.5168 H   0  0  0  0  0  0  0  0  0  0  0  0
   -3.5620    7.5848    1.7896 H   0  0  0  0  0  0  0  0  0  0  0  0
   -4.2583    5.3380    0.9470 H   0  0  0  0  0  0  0  0  0  0  0  0
    2.4961   -2.9754   -5.4198 H   0  0  0  0  0  0  0  0  0  0  0  0
    4.4290   -4.4718   -5.5541 H   0  0  0  0  0  0  0  0  0  0  0  0
    5.3070   -5.5762   -3.5410 H   0  0  0  0  0  0  0  0  0  0  0  0
    5.2018   -5.9777   -1.1222 H   0  0  0  0  0  0  0  0  0  0  0  0
    4.1507   -5.5671    0.9954 H   0  0  0  0  0  0  0  0  0  0  0  0
    2.2458   -4.1168    1.2537 H   0  0  0  0  0  0  0  0  0  0  0  0
    1.2969   -2.9901   -0.6825 H   0  0  0  0  0  0  0  0  0  0  0  0
  1  2  1  0
  2  3  1  0
  3  4  1  0
  4  5  1  0
  4  6  1  0
  6  7  1  0
  7  8  1  0
  8  9  1  0
  9 10  1  0
 10 11  2  0
 11 12  1  0
 12 13  1  0
 13 14  2  0
 14 15  1  0
 15 16  2  0
 16 17  1  0
 17 18  2  0
  2 19  1  0
 19 20  2  0
 19 21  2  0
 19 22  1  0
 22 23  2  0
 23 24  1  0
 24 25  2  0
 25 26  1  0
 26 27  2  0
 27 28  1  0
 28 29  2  0
 29 30  1  0
 30 31  2  0
 18 10  1  0
 31 22  1  0
 18 13  1  0
 31 26  1  0
  1 32  1  0
  1 33  1  0
  1 34  1  0
  2 35  1  1
  3 36  1  0
  3 37  1  0
  4 38  1  1
  5 39  1  0
  6 40  1  0
  6 41  1  0
  7 42  1  0
  7 43  1  0
  8 44  1  0
  8 45  1  0
  9 46  1  0
  9 47  1  0
 11 48  1  0
 12 49  1  0
 14 50  1  0
 15 51  1  0
 16 52  1  0
 17 53  1  0
 23 54  1  0
 24 55  1  0
 25 56  1  0
 27 57  1  0
 28 58  1  0
 29 59  1  0
 30 60  1  0
M  CHG  3   2   1   7   1  28   1
M  END
>  <UniqueID>  (52) 
51

>  <SMILES>  (52) 
C[N@@H+](C[C@@H](O)C[NH2+]CCc1c[nH]c2ccccc12)S(=O)(=O)c1cccc2c[nH+]ccc12

>  <Energy>  (52) 
99.7009269183053

>  <Genealogy>  (52) 
C[NH+](CC(O)C[NH2+]CCc1c[nH]c2ccccc12)S(=O)(=O)c1cccc2c[nH+]ccc12 (protonated)
C[N@@H+](C[C@@H](O)C[NH2+]CCc1c[nH]c2ccccc12)S(=O)(=O)c1cccc2c[nH+]ccc12 (chirality)
C[N@@H+](C[C@@H](O)C[NH2+]CCc1c[nH]c2ccccc12)S(=O)(=O)c1cccc2c[nH+]ccc12 (3D coordinates assigned)
C[N@@H+](C[C@@H](O)C[NH2+]CCc1c[nH]c2ccccc12)S(=O)(=O)c1cccc2c[nH+]ccc12 (optimized conformer: 99.7009269183053 kcal/mol)

$$$$
untitled_line_52
     RDKit          3D

 44 47  0  0  0  0  0  0  0  0999 V2000
    5.6926   -1.0822   -1.8889 C   0  0  0  0  0  0  0  0  0  0  0  0
    4.4525   -1.7066   -1.7668 C   0  0  0  0  0  0  0  0  0  0  0  0
    3.4748   -1.1748   -0.9228 C   0  0  0  0  0  0  0  0  0  0  0  0
    3.7267    0.0002   -0.1790 C   0  0  0  0  0  0  0  0  0  0  0  0
    2.7594    0.5707    0.6948 C   0  0  0  0  0  0  0  0  0  0  0  0
    1.3772   -0.0224    0.8897 C   0  0  0  0  0  0  0  0  0  0  0  0
    0.4762    0.3944   -0.1992 N   0  0  0  0  0  4  0  0  0  0  0  0
   -0.8028   -0.3369   -0.1840 C   0  0  0  0  0  0  0  0  0  0  0  0
   -1.7021    0.0757    0.9927 C   0  0  0  0  0  0  0  0  0  0  0  0
   -3.0628   -0.5382    0.8518 C   0  0  0  0  0  0  0  0  0  0  0  0
   -3.4757   -1.7655    1.3620 C   0  0  0  0  0  0  0  0  0  0  0  0
   -4.7384   -2.0416    0.9635 N   0  0  0  0  0  0  0  0  0  0  0  0
   -5.1198   -1.0067    0.1939 C   0  0  0  0  0  0  0  0  0  0  0  0
   -6.3346   -0.8517   -0.4720 C   0  0  0  0  0  0  0  0  0  0  0  0
   -6.5127    0.3046   -1.2549 C   0  0  0  0  0  0  0  0  0  0  0  0
   -5.4815    1.2647   -1.3576 C   0  0  0  0  0  0  0  0  0  0  0  0
   -4.2637    1.0789   -0.6785 C   0  0  0  0  0  0  0  0  0  0  0  0
   -4.1208   -0.0722    0.0967 C   0  0  0  0  0  0  0  0  0  0  0  0
    3.0674    1.7640    1.3717 C   0  0  0  0  0  0  0  0  0  0  0  0
    4.3127    2.3717    1.2227 C   0  0  0  0  0  0  0  0  0  0  0  0
    5.2733    1.8093    0.3867 C   0  0  0  0  0  0  0  0  0  0  0  0
    4.9935    0.6320   -0.3190 C   0  0  0  0  0  0  0  0  0  0  0  0
    5.9644    0.0818   -1.1704 C   0  0  0  0  0  0  0  0  0  0  0  0
    6.4438   -1.4990   -2.5462 H   0  0  0  0  0  0  0  0  0  0  0  0
    4.2456   -2.6069   -2.3316 H   0  0  0  0  0  0  0  0  0  0  0  0
    2.5271   -1.6905   -0.8744 H   0  0  0  0  0  0  0  0  0  0  0  0
    0.9684    0.3175    1.8667 H   0  0  0  0  0  0  0  0  0  0  0  0
    1.4404   -1.1295    0.9617 H   0  0  0  0  0  0  0  0  0  0  0  0
    0.2976    1.4244   -0.1345 H   0  0  0  0  0  0  0  0  0  0  0  0
    0.9364    0.2062   -1.1204 H   0  0  0  0  0  0  0  0  0  0  0  0
   -0.6233   -1.4354   -0.1574 H   0  0  0  0  0  0  0  0  0  0  0  0
   -1.3417   -0.1189   -1.1336 H   0  0  0  0  0  0  0  0  0  0  0  0
   -1.8007    1.1814    1.0319 H   0  0  0  0  0  0  0  0  0  0  0  0
   -1.2578   -0.2648    1.9514 H   0  0  0  0  0  0  0  0  0  0  0  0
   -2.8801   -2.4241    1.9806 H   0  0  0  0  0  0  0  0  0  0  0  0
   -5.2932   -2.8965    1.1929 H   0  0  0  0  0  0  0  0  0  0  0  0
   -7.1158   -1.5968   -0.3930 H   0  0  0  0  0  0  0  0  0  0  0  0
   -7.4447    0.4575   -1.7834 H   0  0  0  0  0  0  0  0  0  0  0  0
   -5.6287    2.1488   -1.9649 H   0  0  0  0  0  0  0  0  0  0  0  0
   -3.4674    1.8075   -0.7577 H   0  0  0  0  0  0  0  0  0  0  0  0
    2.3377    2.2293    2.0232 H   0  0  0  0  0  0  0  0  0  0  0  0
    4.5332    3.2867    1.7574 H   0  0  0  0  0  0  0  0  0  0  0  0
    6.2346    2.2991    0.2860 H   0  0  0  0  0  0  0  0  0  0  0  0
    6.9329    0.5547   -1.2826 H   0  0  0  0  0  0  0  0  0  0  0  0
  1  2  2  0
  2  3  1  0
  3  4  2  0
  4  5  1  0
  5  6  1  0
  6  7  1  0
  7  8  1  0
  8  9  1  0
  9 10  1  0
 10 11  2  0
 11 12  1  0
 12 13  1  0
 13 14  2  0
 14 15  1  0
 15 16  2  0
 16 17  1  0
 17 18  2  0
  5 19  2  0
 19 20  1  0
 20 21  2  0
 21 22  1  0
 22 23  2  0
 23  1  1  0
 22  4  1  0
 18 10  1  0
 18 13  1  0
  1 24  1  0
  2 25  1  0
  3 26  1  0
  6 27  1  0
  6 28  1  0
  7 29  1  0
  7 30  1  0
  8 31  1  0
  8 32  1  0
  9 33  1  0
  9 34  1  0
 11 35  1  0
 12 36  1  0
 14 37  1  0
 15 38  1  0
 16 39  1  0
 17 40  1  0
 19 41  1  0
 20 42  1  0
 21 43  1  0
 23 44  1  0
M  CHG  1   7   1
M  END
>  <UniqueID>  (53) 
52

>  <SMILES>  (53) 
c1ccc2c(C[NH2+]CCc3c[nH]c4ccccc34)cccc2c1

>  <Energy>  (53) 
84.40844697065728

>  <Genealogy>  (53) 
c1ccc2c(C[NH2+]CCc3c[nH]c4ccccc34)cccc2c1 (protonated)
c1ccc2c(C[NH2+]CCc3c[nH]c4ccccc34)cccc2c1 (3D coordinates assigned)
c1ccc2c(C[NH2+]CCc3c[nH]c4ccccc34)cccc2c1 (optimized conformer: 84.40844697065728 kcal/mol)

$$$$
untitled_line_53
     RDKit          3D

 38 40  0  0  0  0  0  0  0  0999 V2000
    4.9474    0.9535    0.3100 C   0  0  0  0  0  0  0  0  0  0  0  0
    4.7969    0.2657    1.5154 C   0  0  0  0  0  0  0  0  0  0  0  0
    3.8738   -0.7282    1.6247 N   0  0  0  0  0  4  0  0  0  0  0  0
    3.0798   -1.0797    0.5762 C   0  0  0  0  0  0  0  0  0  0  0  0
    3.2004   -0.4184   -0.6560 C   0  0  0  0  0  0  0  0  0  0  0  0
    2.3083   -0.7818   -1.8189 C   0  0  0  0  0  0  0  0  0  0  0  0
    1.2237    0.1968   -2.0084 N   0  0  0  0  0  4  0  0  0  0  0  0
    0.2207    0.1225   -0.9331 C   0  0  0  0  0  0  0  0  0  0  0  0
   -0.9416    1.0838   -1.2070 C   0  0  0  0  0  0  0  0  0  0  0  0
   -1.9500    1.0197   -0.0993 C   0  0  0  0  0  0  0  0  0  0  0  0
   -1.9993    1.8378    1.0255 C   0  0  0  0  0  0  0  0  0  0  0  0
   -2.9947    1.4434    1.8523 N   0  0  0  0  0  0  0  0  0  0  0  0
   -3.5644    0.3761    1.2657 C   0  0  0  0  0  0  0  0  0  0  0  0
   -4.6226   -0.3908    1.7515 C   0  0  0  0  0  0  0  0  0  0  0  0
   -5.0489   -1.4870    0.9791 C   0  0  0  0  0  0  0  0  0  0  0  0
   -4.4125   -1.7910   -0.2450 C   0  0  0  0  0  0  0  0  0  0  0  0
   -3.3453   -1.0005   -0.7093 C   0  0  0  0  0  0  0  0  0  0  0  0
   -2.9497    0.0830    0.0752 C   0  0  0  0  0  0  0  0  0  0  0  0
    4.1442    0.6107   -0.7783 C   0  0  0  0  0  0  0  0  0  0  0  0
    5.6787    1.7464    0.2210 H   0  0  0  0  0  0  0  0  0  0  0  0
    5.4155    0.5263    2.3649 H   0  0  0  0  0  0  0  0  0  0  0  0
    3.7705   -1.2310    2.5343 H   0  0  0  0  0  0  0  0  0  0  0  0
    2.3500   -1.8704    0.7015 H   0  0  0  0  0  0  0  0  0  0  0  0
    1.8892   -1.8053   -1.6893 H   0  0  0  0  0  0  0  0  0  0  0  0
    2.9299   -0.8181   -2.7413 H   0  0  0  0  0  0  0  0  0  0  0  0
    0.7574   -0.0132   -2.9222 H   0  0  0  0  0  0  0  0  0  0  0  0
    1.6226    1.1640   -2.0577 H   0  0  0  0  0  0  0  0  0  0  0  0
   -0.1779   -0.9146   -0.8550 H   0  0  0  0  0  0  0  0  0  0  0  0
    0.6847    0.3975    0.0403 H   0  0  0  0  0  0  0  0  0  0  0  0
   -0.5559    2.1228   -1.2926 H   0  0  0  0  0  0  0  0  0  0  0  0
   -1.4333    0.8200   -2.1679 H   0  0  0  0  0  0  0  0  0  0  0  0
   -1.3353    2.6670    1.2323 H   0  0  0  0  0  0  0  0  0  0  0  0
   -3.2540    1.8736    2.7678 H   0  0  0  0  0  0  0  0  0  0  0  0
   -5.0995   -0.1541    2.6938 H   0  0  0  0  0  0  0  0  0  0  0  0
   -5.8675   -2.1033    1.3271 H   0  0  0  0  0  0  0  0  0  0  0  0
   -4.7467   -2.6387   -0.8288 H   0  0  0  0  0  0  0  0  0  0  0  0
   -2.8502   -1.2303   -1.6438 H   0  0  0  0  0  0  0  0  0  0  0  0
    4.2555    1.1456   -1.7134 H   0  0  0  0  0  0  0  0  0  0  0  0
  1  2  2  0
  2  3  1  0
  3  4  2  0
  4  5  1  0
  5  6  1  0
  6  7  1  0
  7  8  1  0
  8  9  1  0
  9 10  1  0
 10 11  2  0
 11 12  1  0
 12 13  1  0
 13 14  2  0
 14 15  1  0
 15 16  2  0
 16 17  1  0
 17 18  2  0
  5 19  2  0
 19  1  1  0
 18 10  1  0
 18 13  1  0
  1 20  1  0
  2 21  1  0
  3 22  1  0
  4 23  1  0
  6 24  1  0
  6 25  1  0
  7 26  1  0
  7 27  1  0
  8 28  1  0
  8 29  1  0
  9 30  1  0
  9 31  1  0
 11 32  1  0
 12 33  1  0
 14 34  1  0
 15 35  1  0
 16 36  1  0
 17 37  1  0
 19 38  1  0
M  CHG  2   3   1   7   1
M  END
>  <UniqueID>  (54) 
53

>  <SMILES>  (54) 
c1c[nH+]cc(C[NH2+]CCc2c[nH]c3ccccc23)c1

>  <Energy>  (54) 
69.1983556155619

>  <Genealogy>  (54) 
c1c[nH+]cc(C[NH2+]CCc2c[nH]c3ccccc23)c1 (protonated)
c1c[nH+]cc(C[NH2+]CCc2c[nH]c3ccccc23)c1 (3D coordinates assigned)
c1c[nH+]cc(C[NH2+]CCc2c[nH]c3ccccc23)c1 (optimized conformer: 69.1983556155619 kcal/mol)

$$$$
untitled_line_54
     RDKit          3D

 71 72  0  0  0  0  0  0  0  0999 V2000
   -4.0755    7.6482   -2.1043 O   0  0  0  0  0  0  0  0  0  0  0  0
   -5.2183    7.7066   -1.2940 C   0  0  0  0  0  0  0  0  0  0  0  0
   -5.7472    6.2970   -0.9862 C   0  0  0  0  0  0  0  0  0  0  0  0
   -4.9936    5.5920    0.1552 C   0  0  0  0  0  0  0  0  0  0  0  0
   -3.5343    5.2619   -0.2052 C   0  0  0  0  0  0  0  0  0  0  0  0
   -2.8222    4.4564    0.8940 C   0  0  0  0  0  0  0  0  0  0  0  0
   -3.2523    2.9817    0.9230 C   0  0  0  0  0  0  0  0  0  0  0  0
   -2.4202    2.1908    1.9396 C   0  0  0  0  0  0  0  0  0  0  0  0
   -2.8426    0.7170    1.9789 C   0  0  0  0  0  0  0  0  0  0  0  0
   -1.9621   -0.0742    2.9570 C   0  0  0  0  0  0  0  0  0  0  0  0
   -2.4008   -1.5386    3.1078 C   0  0  0  0  0  0  0  0  0  0  0  0
   -2.2438   -2.3441    1.8081 C   0  0  0  0  0  0  0  0  0  0  0  0
   -2.3005   -3.8538    2.0846 C   0  0  0  0  0  0  0  0  0  0  0  0
   -2.3243   -4.7043    0.8009 C   0  0  0  0  0  0  0  0  0  0  0  0
   -1.1307   -4.4883   -0.1490 C   0  0  0  0  0  0  0  0  0  0  0  0
    0.2314   -4.7359    0.5199 C   0  0  0  0  0  0  0  0  0  0  0  0
    1.3122   -4.7155   -0.4786 N   0  0  0  0  0  4  0  0  0  0  0  0
    2.6269   -4.7704    0.1786 C   0  0  0  0  0  0  0  0  0  0  0  0
    3.7543   -4.7845   -0.8609 C   0  0  0  0  0  0  0  0  0  0  0  0
    5.0938   -4.7664   -0.1864 C   0  0  0  0  0  0  0  0  0  0  0  0
    5.8635   -5.8725    0.1635 C   0  0  0  0  0  0  0  0  0  0  0  0
    6.9779   -5.4816    0.8246 N   0  0  0  0  0  0  0  0  0  0  0  0
    6.9116   -4.1404    0.9050 C   0  0  0  0  0  0  0  0  0  0  0  0
    7.8275   -3.2828    1.5147 C   0  0  0  0  0  0  0  0  0  0  0  0
    7.5480   -1.9028    1.4991 C   0  0  0  0  0  0  0  0  0  0  0  0
    6.3709   -1.4170    0.8857 C   0  0  0  0  0  0  0  0  0  0  0  0
    5.4637   -2.3061    0.2800 C   0  0  0  0  0  0  0  0  0  0  0  0
    5.7718   -3.6677    0.3053 C   0  0  0  0  0  0  0  0  0  0  0  0
   -4.3902    7.4699   -3.0308 H   0  0  0  0  0  0  0  0  0  0  0  0
   -4.9688    8.2400   -0.3522 H   0  0  0  0  0  0  0  0  0  0  0  0
   -6.0125    8.2970   -1.8041 H   0  0  0  0  0  0  0  0  0  0  0  0
   -6.8111    6.3921   -0.6781 H   0  0  0  0  0  0  0  0  0  0  0  0
   -5.7289    5.6683   -1.9043 H   0  0  0  0  0  0  0  0  0  0  0  0
   -5.0203    6.2273    1.0674 H   0  0  0  0  0  0  0  0  0  0  0  0
   -5.5420    4.6539    0.3830 H   0  0  0  0  0  0  0  0  0  0  0  0
   -2.9742    6.2138   -0.3301 H   0  0  0  0  0  0  0  0  0  0  0  0
   -3.4892    4.7103   -1.1717 H   0  0  0  0  0  0  0  0  0  0  0  0
   -1.7283    4.5035    0.6975 H   0  0  0  0  0  0  0  0  0  0  0  0
   -3.0064    4.9253    1.8859 H   0  0  0  0  0  0  0  0  0  0  0  0
   -3.1145    2.5378   -0.0877 H   0  0  0  0  0  0  0  0  0  0  0  0
   -4.3251    2.9066    1.2004 H   0  0  0  0  0  0  0  0  0  0  0  0
   -2.5510    2.6375    2.9499 H   0  0  0  0  0  0  0  0  0  0  0  0
   -1.3445    2.2568    1.6615 H   0  0  0  0  0  0  0  0  0  0  0  0
   -2.7454    0.2875    0.9588 H   0  0  0  0  0  0  0  0  0  0  0  0
   -3.9065    0.6467    2.2961 H   0  0  0  0  0  0  0  0  0  0  0  0
   -2.0156    0.4051    3.9589 H   0  0  0  0  0  0  0  0  0  0  0  0
   -0.9012   -0.0383    2.6242 H   0  0  0  0  0  0  0  0  0  0  0  0
   -3.4577   -1.5824    3.4500 H   0  0  0  0  0  0  0  0  0  0  0  0
   -1.7708   -1.9952    3.9031 H   0  0  0  0  0  0  0  0  0  0  0  0
   -1.2704   -2.0920    1.3387 H   0  0  0  0  0  0  0  0  0  0  0  0
   -3.0593   -2.0702    1.1059 H   0  0  0  0  0  0  0  0  0  0  0  0
   -1.4405   -4.1535    2.7211 H   0  0  0  0  0  0  0  0  0  0  0  0
   -3.2251   -4.0809    2.6597 H   0  0  0  0  0  0  0  0  0  0  0  0
   -2.3633   -5.7782    1.0905 H   0  0  0  0  0  0  0  0  0  0  0  0
   -3.2614   -4.4829    0.2426 H   0  0  0  0  0  0  0  0  0  0  0  0
   -1.2441   -5.1918   -1.0027 H   0  0  0  0  0  0  0  0  0  0  0  0
   -1.1612   -3.4596   -0.5685 H   0  0  0  0  0  0  0  0  0  0  0  0
    0.2132   -5.7246    1.0330 H   0  0  0  0  0  0  0  0  0  0  0  0
    0.4080   -3.9443    1.2817 H   0  0  0  0  0  0  0  0  0  0  0  0
    1.2502   -3.8356   -1.0453 H   0  0  0  0  0  0  0  0  0  0  0  0
    1.2071   -5.5453   -1.1115 H   0  0  0  0  0  0  0  0  0  0  0  0
    2.7013   -5.6873    0.8052 H   0  0  0  0  0  0  0  0  0  0  0  0
    2.7556   -3.8827    0.8397 H   0  0  0  0  0  0  0  0  0  0  0  0
    3.6714   -5.6953   -1.4930 H   0  0  0  0  0  0  0  0  0  0  0  0
    3.6670   -3.9004   -1.5260 H   0  0  0  0  0  0  0  0  0  0  0  0
    5.6158   -6.9059   -0.0445 H   0  0  0  0  0  0  0  0  0  0  0  0
    7.7284   -6.1001    1.2066 H   0  0  0  0  0  0  0  0  0  0  0  0
    8.7240   -3.6640    1.9868 H   0  0  0  0  0  0  0  0  0  0  0  0
    8.2381   -1.2091    1.9626 H   0  0  0  0  0  0  0  0  0  0  0  0
    6.1645   -0.3544    0.8828 H   0  0  0  0  0  0  0  0  0  0  0  0
    4.5590   -1.9399   -0.1893 H   0  0  0  0  0  0  0  0  0  0  0  0
  1  2  1  0
  2  3  1  0
  3  4  1  0
  4  5  1  0
  5  6  1  0
  6  7  1  0
  7  8  1  0
  8  9  1  0
  9 10  1  0
 10 11  1  0
 11 12  1  0
 12 13  1  0
 13 14  1  0
 14 15  1  0
 15 16  1  0
 16 17  1  0
 17 18  1  0
 18 19  1  0
 19 20  1  0
 20 21  2  0
 21 22  1  0
 22 23  1  0
 23 24  2  0
 24 25  1  0
 25 26  2  0
 26 27  1  0
 27 28  2  0
 28 20  1  0
 28 23  1  0
  1 29  1  0
  2 30  1  0
  2 31  1  0
  3 32  1  0
  3 33  1  0
  4 34  1  0
  4 35  1  0
  5 36  1  0
  5 37  1  0
  6 38  1  0
  6 39  1  0
  7 40  1  0
  7 41  1  0
  8 42  1  0
  8 43  1  0
  9 44  1  0
  9 45  1  0
 10 46  1  0
 10 47  1  0
 11 48  1  0
 11 49  1  0
 12 50  1  0
 12 51  1  0
 13 52  1  0
 13 53  1  0
 14 54  1  0
 14 55  1  0
 15 56  1  0
 15 57  1  0
 16 58  1  0
 16 59  1  0
 17 60  1  0
 17 61  1  0
 18 62  1  0
 18 63  1  0
 19 64  1  0
 19 65  1  0
 21 66  1  0
 22 67  1  0
 24 68  1  0
 25 69  1  0
 26 70  1  0
 27 71  1  0
M  CHG  1  17   1
M  END
>  <UniqueID>  (55) 
54

>  <SMILES>  (55) 
OCCCCCCCCCCCCCCC[NH2+]CCc1c[nH]c2ccccc12

>  <Energy>  (55) 
75.15828550822751

>  <Genealogy>  (55) 
OCCCCCCCCCCCCCCC[NH2+]CCc1c[nH]c2ccccc12 (protonated)
OCCCCCCCCCCCCCCC[NH2+]CCc1c[nH]c2ccccc12 (3D coordinates assigned)
OCCCCCCCCCCCCCCC[NH2+]CCc1c[nH]c2ccccc12 (optimized conformer: 75.15828550822751 kcal/mol)

$$$$
untitled_line_55
     RDKit          3D

 56 60  0  0  0  0  0  0  0  0999 V2000
   -2.1150   -1.5085    0.3170 O   0  0  0  0  0  0  0  0  0  0  0  0
   -1.1014   -0.7841    0.1208 C   0  0  0  0  0  0  0  0  0  0  0  0
   -0.9979    0.0147   -1.1487 C   0  0  0  0  0  0  0  0  0  0  0  0
   -0.7943   -0.8958   -2.3864 C   0  0  2  0  0  0  0  0  0  0  0  0
    0.4814   -1.6969   -2.2956 C   0  0  0  0  0  0  0  0  0  0  0  0
    0.5673   -2.8009   -2.8982 O   0  0  0  0  0  0  0  0  0  0  0  0
    1.5774   -1.2140   -1.5845 O   0  0  0  0  0  0  0  0  0  0  0  0
   -0.8544   -0.1192   -3.7327 C   0  0  0  0  0  0  0  0  0  0  0  0
   -2.1968    0.5414   -3.9388 C   0  0  0  0  0  0  0  0  0  0  0  0
   -3.4476   -0.0724   -4.0476 C   0  0  0  0  0  0  0  0  0  0  0  0
   -4.5813    0.7365   -4.2328 C   0  0  0  0  0  0  0  0  0  0  0  0
   -4.4529    2.1372   -4.3155 C   0  0  0  0  0  0  0  0  0  0  0  0
   -3.1887    2.7399   -4.2161 C   0  0  0  0  0  0  0  0  0  0  0  0
   -2.0779    1.9168   -4.0259 C   0  0  0  0  0  0  0  0  0  0  0  0
   -0.6761    2.2603   -3.9312 C   0  0  0  0  0  0  0  0  0  0  0  0
   -0.0567    3.5069   -4.0282 C   0  0  0  0  0  0  0  0  0  0  0  0
    1.3455    3.5566   -3.9845 C   0  0  0  0  0  0  0  0  0  0  0  0
    2.0959    2.3705   -3.8703 C   0  0  0  0  0  0  0  0  0  0  0  0
    1.4503    1.1262   -3.7840 C   0  0  0  0  0  0  0  0  0  0  0  0
    0.0523    1.0915   -3.7884 C   0  0  0  0  0  0  0  0  0  0  0  0
   -0.0529   -0.7301    1.0976 N   0  0  0  0  0  0  0  0  0  0  0  0
   -0.0904   -1.5535    2.3056 C   0  0  0  0  0  0  0  0  0  0  0  0
    1.0816   -1.2164    3.2313 C   0  0  0  0  0  0  0  0  0  0  0  0
    1.0819   -2.1070    4.4379 C   0  0  0  0  0  0  0  0  0  0  0  0
    1.8834   -3.2272    4.6415 C   0  0  0  0  0  0  0  0  0  0  0  0
    1.5831   -3.8134    5.8231 N   0  0  0  0  0  0  0  0  0  0  0  0
    0.5926   -3.0790    6.3615 C   0  0  0  0  0  0  0  0  0  0  0  0
   -0.0568   -3.2965    7.5764 C   0  0  0  0  0  0  0  0  0  0  0  0
   -1.0793   -2.4027    7.9451 C   0  0  0  0  0  0  0  0  0  0  0  0
   -1.4265   -1.3239    7.1011 C   0  0  0  0  0  0  0  0  0  0  0  0
   -0.7533   -1.1276    5.8814 C   0  0  0  0  0  0  0  0  0  0  0  0
    0.2572   -2.0302    5.5436 C   0  0  0  0  0  0  0  0  0  0  0  0
   -1.9375    0.5964   -1.2574 H   0  0  0  0  0  0  0  0  0  0  0  0
   -0.1684    0.7492   -1.0695 H   0  0  0  0  0  0  0  0  0  0  0  0
   -1.6313   -1.6299   -2.3981 H   0  0  0  0  0  0  0  0  0  0  0  0
    2.4400   -1.7430   -1.5352 H   0  0  0  0  0  0  0  0  0  0  0  0
   -0.6421   -0.7935   -4.5914 H   0  0  0  0  0  0  0  0  0  0  0  0
   -3.5440   -1.1487   -3.9886 H   0  0  0  0  0  0  0  0  0  0  0  0
   -5.5593    0.2806   -4.3143 H   0  0  0  0  0  0  0  0  0  0  0  0
   -5.3326    2.7517   -4.4615 H   0  0  0  0  0  0  0  0  0  0  0  0
   -3.0836    3.8144   -4.2899 H   0  0  0  0  0  0  0  0  0  0  0  0
   -0.6375    4.4128   -4.1448 H   0  0  0  0  0  0  0  0  0  0  0  0
    1.8529    4.5098   -4.0561 H   0  0  0  0  0  0  0  0  0  0  0  0
    3.1772    2.4168   -3.8586 H   0  0  0  0  0  0  0  0  0  0  0  0
    2.0309    0.2157   -3.7294 H   0  0  0  0  0  0  0  0  0  0  0  0
    0.7580   -0.0923    0.9309 H   0  0  0  0  0  0  0  0  0  0  0  0
   -0.0435   -2.6255    2.0158 H   0  0  0  0  0  0  0  0  0  0  0  0
   -1.0454   -1.3698    2.8428 H   0  0  0  0  0  0  0  0  0  0  0  0
    1.0062   -0.1566    3.5574 H   0  0  0  0  0  0  0  0  0  0  0  0
    2.0400   -1.3409    2.6819 H   0  0  0  0  0  0  0  0  0  0  0  0
    2.6421   -3.5933    3.9609 H   0  0  0  0  0  0  0  0  0  0  0  0
    2.0280   -4.6665    6.2288 H   0  0  0  0  0  0  0  0  0  0  0  0
    0.2150   -4.1272    8.2154 H   0  0  0  0  0  0  0  0  0  0  0  0
   -1.6043   -2.5430    8.8813 H   0  0  0  0  0  0  0  0  0  0  0  0
   -2.2155   -0.6425    7.3956 H   0  0  0  0  0  0  0  0  0  0  0  0
   -1.0128   -0.3022    5.2308 H   0  0  0  0  0  0  0  0  0  0  0  0
  1  2  2  0
  2  3  1  0
  3  4  1  0
  4  5  1  0
  5  6  2  0
  5  7  1  0
  4  8  1  0
  8  9  1  0
  9 10  2  0
 10 11  1  0
 11 12  2  0
 12 13  1  0
 13 14  2  0
 14 15  1  0
 15 16  2  0
 16 17  1  0
 17 18  2  0
 18 19  1  0
 19 20  2  0
  2 21  1  0
 21 22  1  0
 22 23  1  0
 23 24  1  0
 24 25  2  0
 25 26  1  0
 26 27  1  0
 27 28  2  0
 28 29  1  0
 29 30  2  0
 30 31  1  0
 31 32  2  0
 20  8  1  0
 32 24  1  0
 14  9  1  0
 20 15  1  0
 32 27  1  0
  3 33  1  0
  3 34  1  0
  4 35  1  6
  7 36  1  0
  8 37  1  0
 10 38  1  0
 11 39  1  0
 12 40  1  0
 13 41  1  0
 16 42  1  0
 17 43  1  0
 18 44  1  0
 19 45  1  0
 21 46  1  0
 22 47  1  0
 22 48  1  0
 23 49  1  0
 23 50  1  0
 25 51  1  0
 26 52  1  0
 28 53  1  0
 29 54  1  0
 30 55  1  0
 31 56  1  0
M  END
>  <UniqueID>  (56) 
55

>  <SMILES>  (56) 
O=C(C[C@H](C(=O)O)C1c2ccccc2-c2ccccc21)NCCc1c[nH]c2ccccc12

>  <Energy>  (56) 
109.37735559651544

>  <Genealogy>  (56) 
O=C(C[C@H](C(=O)O)C1c2ccccc2-c2ccccc21)NCCc1c[nH]c2ccccc12 (chirality)
O=C(C[C@H](C(=O)O)C1c2ccccc2-c2ccccc21)NCCc1c[nH]c2ccccc12 (3D coordinates assigned)
O=C(C[C@H](C(=O)O)C1c2ccccc2-c2ccccc21)NCCc1c[nH]c2ccccc12 (nonaromatic ring conformer: 109.37735559651544 kcal/mol)

$$$$
untitled_line_56
     RDKit          3D

 43 45  0  0  0  0  0  0  0  0999 V2000
   -1.6061    2.6161    2.4592 C   0  0  0  0  0  0  0  0  0  0  0  0
   -2.1724    2.1695    1.2313 O   0  0  0  0  0  0  0  0  0  0  0  0
   -2.2216    0.8272    0.8220 C   0  0  0  0  0  0  0  0  0  0  0  0
   -1.6334   -0.2093    1.5733 C   0  0  0  0  0  0  0  0  0  0  0  0
   -1.6992   -1.5398    1.1276 C   0  0  0  0  0  0  0  0  0  0  0  0
   -1.0089   -2.6327    1.9122 C   0  0  0  0  0  0  0  0  0  0  0  0
    0.4496   -2.6103    1.6973 N   0  0  0  0  0  4  0  0  0  0  0  0
    0.8418   -3.1987    0.3949 C   0  0  0  0  0  0  0  0  0  0  0  0
    1.8912   -2.3520   -0.3401 C   0  0  0  0  0  0  0  0  0  0  0  0
    1.3035   -1.0691   -0.8548 C   0  0  0  0  0  0  0  0  0  0  0  0
    0.4656   -0.9256   -1.9584 C   0  0  0  0  0  0  0  0  0  0  0  0
    0.0929    0.3662   -2.1059 N   0  0  0  0  0  0  0  0  0  0  0  0
    0.6842    1.0391   -1.1033 C   0  0  0  0  0  0  0  0  0  0  0  0
    0.5923    2.4055   -0.8360 C   0  0  0  0  0  0  0  0  0  0  0  0
    1.2944    2.9067    0.2747 C   0  0  0  0  0  0  0  0  0  0  0  0
    2.0597    2.0409    1.0873 C   0  0  0  0  0  0  0  0  0  0  0  0
    2.1331    0.6662    0.7951 C   0  0  0  0  0  0  0  0  0  0  0  0
    1.4296    0.1979   -0.3162 C   0  0  0  0  0  0  0  0  0  0  0  0
   -2.3702   -1.8332   -0.0697 C   0  0  0  0  0  0  0  0  0  0  0  0
   -2.9533   -0.8106   -0.8158 C   0  0  0  0  0  0  0  0  0  0  0  0
   -2.8739    0.5186   -0.3797 C   0  0  0  0  0  0  0  0  0  0  0  0
   -3.4385    1.5428   -1.1398 O   0  0  0  0  0  0  0  0  0  0  0  0
   -0.5358    2.3274    2.5187 H   0  0  0  0  0  0  0  0  0  0  0  0
   -2.1647    2.1810    3.3152 H   0  0  0  0  0  0  0  0  0  0  0  0
   -1.6746    3.7208    2.5104 H   0  0  0  0  0  0  0  0  0  0  0  0
   -1.1111    0.0098    2.4947 H   0  0  0  0  0  0  0  0  0  0  0  0
   -1.4260   -3.6342    1.6588 H   0  0  0  0  0  0  0  0  0  0  0  0
   -1.2210   -2.4765    2.9941 H   0  0  0  0  0  0  0  0  0  0  0  0
    0.8987   -3.1687    2.4621 H   0  0  0  0  0  0  0  0  0  0  0  0
    0.7982   -1.6300    1.8078 H   0  0  0  0  0  0  0  0  0  0  0  0
   -0.0263   -3.3530   -0.2813 H   0  0  0  0  0  0  0  0  0  0  0  0
    1.2756   -4.2085    0.5651 H   0  0  0  0  0  0  0  0  0  0  0  0
    2.2804   -2.9314   -1.2045 H   0  0  0  0  0  0  0  0  0  0  0  0
    2.7500   -2.1450    0.3321 H   0  0  0  0  0  0  0  0  0  0  0  0
    0.1370   -1.7244   -2.6107 H   0  0  0  0  0  0  0  0  0  0  0  0
   -0.5327    0.7596   -2.8457 H   0  0  0  0  0  0  0  0  0  0  0  0
   -0.0031    3.0591   -1.4605 H   0  0  0  0  0  0  0  0  0  0  0  0
    1.2432    3.9626    0.5116 H   0  0  0  0  0  0  0  0  0  0  0  0
    2.5922    2.4370    1.9412 H   0  0  0  0  0  0  0  0  0  0  0  0
    2.7200    0.0012    1.4162 H   0  0  0  0  0  0  0  0  0  0  0  0
   -2.4333   -2.8519   -0.4299 H   0  0  0  0  0  0  0  0  0  0  0  0
   -3.4594   -1.0501   -1.7399 H   0  0  0  0  0  0  0  0  0  0  0  0
   -3.9149    1.3533   -2.0127 H   0  0  0  0  0  0  0  0  0  0  0  0
  1  2  1  0
  2  3  1  0
  3  4  2  0
  4  5  1  0
  5  6  1  0
  6  7  1  0
  7  8  1  0
  8  9  1  0
  9 10  1  0
 10 11  2  0
 11 12  1  0
 12 13  1  0
 13 14  2  0
 14 15  1  0
 15 16  2  0
 16 17  1  0
 17 18  2  0
  5 19  2  0
 19 20  1  0
 20 21  2  0
 21 22  1  0
 21  3  1  0
 18 10  1  0
 18 13  1  0
  1 23  1  0
  1 24  1  0
  1 25  1  0
  4 26  1  0
  6 27  1  0
  6 28  1  0
  7 29  1  0
  7 30  1  0
  8 31  1  0
  8 32  1  0
  9 33  1  0
  9 34  1  0
 11 35  1  0
 12 36  1  0
 14 37  1  0
 15 38  1  0
 16 39  1  0
 17 40  1  0
 19 41  1  0
 20 42  1  0
 22 43  1  0
M  CHG  1   7   1
M  END
>  <UniqueID>  (57) 
56

>  <SMILES>  (57) 
COc1cc(C[NH2+]CCc2c[nH]c3ccccc23)ccc1O

>  <Energy>  (57) 
70.67991906992194

>  <Genealogy>  (57) 
COc1cc(C[NH2+]CCc2c[nH]c3ccccc23)ccc1O (protonated)
COc1cc(C[NH2+]CCc2c[nH]c3ccccc23)ccc1O (3D coordinates assigned)
COc1cc(C[NH2+]CCc2c[nH]c3ccccc23)ccc1O (optimized conformer: 70.67991906992194 kcal/mol)

$$$$
untitled_line_57
     RDKit          3D

 35 36  0  0  0  0  0  0  0  0999 V2000
    1.0149    1.8820   -0.5984 C   0  0  0  0  0  0  0  0  0  0  0  0
    2.2347    2.3114    0.2184 C   0  0  0  0  0  0  0  0  0  0  0  0
    2.1434    1.8807    1.6887 C   0  0  0  0  0  0  0  0  0  0  0  0
    2.1908    0.3876    1.8339 C   0  0  0  0  0  0  0  0  0  0  0  0
    3.3066   -0.1962    1.8995 O   0  0  0  0  0  0  0  0  0  0  0  0
    0.9752   -0.3706    1.8418 N   0  0  0  0  0  0  0  0  0  0  0  0
    0.9750   -1.8323    1.7763 C   0  0  0  0  0  0  0  0  0  0  0  0
   -0.3957   -2.3712    1.3492 C   0  0  0  0  0  0  0  0  0  0  0  0
   -0.7265   -1.9527   -0.0559 C   0  0  0  0  0  0  0  0  0  0  0  0
   -0.1721   -2.4778   -1.2198 C   0  0  0  0  0  0  0  0  0  0  0  0
   -0.6046   -1.7916   -2.3017 N   0  0  0  0  0  0  0  0  0  0  0  0
   -1.4191   -0.8315   -1.8316 C   0  0  0  0  0  0  0  0  0  0  0  0
   -2.0769    0.1516   -2.5696 C   0  0  0  0  0  0  0  0  0  0  0  0
   -2.8604    1.0861   -1.8690 C   0  0  0  0  0  0  0  0  0  0  0  0
   -2.9673    1.0187   -0.4625 C   0  0  0  0  0  0  0  0  0  0  0  0
   -2.2905    0.0173    0.2568 C   0  0  0  0  0  0  0  0  0  0  0  0
   -1.5195   -0.8959   -0.4646 C   0  0  0  0  0  0  0  0  0  0  0  0
    0.9824    0.7769   -0.6954 H   0  0  0  0  0  0  0  0  0  0  0  0
    1.0787    2.3168   -1.6179 H   0  0  0  0  0  0  0  0  0  0  0  0
    0.0786    2.2387   -0.1189 H   0  0  0  0  0  0  0  0  0  0  0  0
    3.1553    1.8921   -0.2431 H   0  0  0  0  0  0  0  0  0  0  0  0
    2.3115    3.4196    0.1799 H   0  0  0  0  0  0  0  0  0  0  0  0
    2.9964    2.3248    2.2460 H   0  0  0  0  0  0  0  0  0  0  0  0
    1.2106    2.2788    2.1437 H   0  0  0  0  0  0  0  0  0  0  0  0
    0.0690    0.1484    1.8498 H   0  0  0  0  0  0  0  0  0  0  0  0
    1.7427   -2.1788    1.0495 H   0  0  0  0  0  0  0  0  0  0  0  0
    1.2368   -2.2394    2.7761 H   0  0  0  0  0  0  0  0  0  0  0  0
   -1.1790   -2.0223    2.0552 H   0  0  0  0  0  0  0  0  0  0  0  0
   -0.3761   -3.4811    1.3956 H   0  0  0  0  0  0  0  0  0  0  0  0
    0.5292   -3.3006   -1.2681 H   0  0  0  0  0  0  0  0  0  0  0  0
   -0.3378   -1.9613   -3.2969 H   0  0  0  0  0  0  0  0  0  0  0  0
   -1.9835    0.1993   -3.6468 H   0  0  0  0  0  0  0  0  0  0  0  0
   -3.3828    1.8633   -2.4114 H   0  0  0  0  0  0  0  0  0  0  0  0
   -3.5718    1.7441    0.0661 H   0  0  0  0  0  0  0  0  0  0  0  0
   -2.3686   -0.0345    1.3345 H   0  0  0  0  0  0  0  0  0  0  0  0
  1  2  1  0
  2  3  1  0
  3  4  1  0
  4  5  2  0
  4  6  1  0
  6  7  1  0
  7  8  1  0
  8  9  1  0
  9 10  2  0
 10 11  1  0
 11 12  1  0
 12 13  2  0
 13 14  1  0
 14 15  2  0
 15 16  1  0
 16 17  2  0
 17  9  1  0
 17 12  1  0
  1 18  1  0
  1 19  1  0
  1 20  1  0
  2 21  1  0
  2 22  1  0
  3 23  1  0
  3 24  1  0
  6 25  1  0
  7 26  1  0
  7 27  1  0
  8 28  1  0
  8 29  1  0
 10 30  1  0
 11 31  1  0
 13 32  1  0
 14 33  1  0
 15 34  1  0
 16 35  1  0
M  END
>  <UniqueID>  (58) 
57

>  <SMILES>  (58) 
CCCC(=O)NCCc1c[nH]c2ccccc12

>  <Energy>  (58) 
54.871250756245864

>  <Genealogy>  (58) 
CCCC(=O)NCCc1c[nH]c2ccccc12 (3D coordinates assigned)
CCCC(=O)NCCc1c[nH]c2ccccc12 (optimized conformer: 54.871250756245864 kcal/mol)

$$$$
untitled_line_58
     RDKit          3D

 42 43  0  0  0  0  0  0  0  0999 V2000
    5.0720   -0.2632    1.8812 C   0  0  0  0  0  0  0  0  0  0  0  0
    4.3582    0.4562    0.7357 C   0  0  0  0  0  0  0  0  0  0  0  0
    3.8579   -0.5124   -0.3663 C   0  0  2  0  0  0  0  0  0  0  0  0
    5.0342   -1.1759   -1.1041 C   0  0  0  0  0  0  0  0  0  0  0  0
    2.9218    0.2010   -1.3796 C   0  0  2  0  0  0  0  0  0  0  0  0
    3.5419    1.3429   -1.9184 O   0  0  0  0  0  0  0  0  0  0  0  0
    1.6162    0.5885   -0.7353 C   0  0  0  0  0  0  0  0  0  0  0  0
    1.4261    1.7793   -0.3637 O   0  0  0  0  0  0  0  0  0  0  0  0
    0.6082   -0.4072   -0.5082 N   0  0  0  0  0  0  0  0  0  0  0  0
   -0.6704   -0.1009    0.1293 C   0  0  0  0  0  0  0  0  0  0  0  0
   -1.5931    0.6313   -0.8473 C   0  0  0  0  0  0  0  0  0  0  0  0
   -2.9156    0.9224   -0.2042 C   0  0  0  0  0  0  0  0  0  0  0  0
   -3.2699    2.0857    0.4725 C   0  0  0  0  0  0  0  0  0  0  0  0
   -4.5155    1.9710    0.9876 N   0  0  0  0  0  0  0  0  0  0  0  0
   -4.9443    0.7413    0.6532 C   0  0  0  0  0  0  0  0  0  0  0  0
   -6.1667    0.1550    0.9786 C   0  0  0  0  0  0  0  0  0  0  0  0
   -6.4017   -1.1614    0.5410 C   0  0  0  0  0  0  0  0  0  0  0  0
   -5.4193   -1.8556   -0.1999 C   0  0  0  0  0  0  0  0  0  0  0  0
   -4.1937   -1.2393   -0.5119 C   0  0  0  0  0  0  0  0  0  0  0  0
   -3.9925    0.0684   -0.0695 C   0  0  0  0  0  0  0  0  0  0  0  0
    4.4353   -1.0781    2.2864 H   0  0  0  0  0  0  0  0  0  0  0  0
    5.2803    0.4600    2.6978 H   0  0  0  0  0  0  0  0  0  0  0  0
    6.0413   -0.6824    1.5410 H   0  0  0  0  0  0  0  0  0  0  0  0
    5.0441    1.2149    0.2997 H   0  0  0  0  0  0  0  0  0  0  0  0
    3.4949    0.9986    1.1759 H   0  0  0  0  0  0  0  0  0  0  0  0
    3.2747   -1.3277    0.1185 H   0  0  0  0  0  0  0  0  0  0  0  0
    5.7318   -0.4112   -1.5070 H   0  0  0  0  0  0  0  0  0  0  0  0
    4.6627   -1.7998   -1.9447 H   0  0  0  0  0  0  0  0  0  0  0  0
    5.5940   -1.8480   -0.4215 H   0  0  0  0  0  0  0  0  0  0  0  0
    2.6677   -0.5079   -2.2033 H   0  0  0  0  0  0  0  0  0  0  0  0
    4.1054    1.0389   -2.6769 H   0  0  0  0  0  0  0  0  0  0  0  0
    0.8145   -1.4018   -0.7538 H   0  0  0  0  0  0  0  0  0  0  0  0
   -0.4992    0.5144    1.0398 H   0  0  0  0  0  0  0  0  0  0  0  0
   -1.1535   -1.0517    0.4450 H   0  0  0  0  0  0  0  0  0  0  0  0
   -1.1262    1.5866   -1.1690 H   0  0  0  0  0  0  0  0  0  0  0  0
   -1.7506    0.0070   -1.7530 H   0  0  0  0  0  0  0  0  0  0  0  0
   -2.6457    2.9619    0.5906 H   0  0  0  0  0  0  0  0  0  0  0  0
   -5.0299    2.6889    1.5448 H   0  0  0  0  0  0  0  0  0  0  0  0
   -6.9106    0.6926    1.5522 H   0  0  0  0  0  0  0  0  0  0  0  0
   -7.3400   -1.6464    0.7765 H   0  0  0  0  0  0  0  0  0  0  0  0
   -5.6099   -2.8690   -0.5283 H   0  0  0  0  0  0  0  0  0  0  0  0
   -3.4350   -1.7668   -1.0753 H   0  0  0  0  0  0  0  0  0  0  0  0
  1  2  1  0
  2  3  1  0
  3  4  1  0
  3  5  1  0
  5  6  1  0
  5  7  1  0
  7  8  2  0
  7  9  1  0
  9 10  1  0
 10 11  1  0
 11 12  1  0
 12 13  2  0
 13 14  1  0
 14 15  1  0
 15 16  2  0
 16 17  1  0
 17 18  2  0
 18 19  1  0
 19 20  2  0
 20 12  1  0
 20 15  1  0
  1 21  1  0
  1 22  1  0
  1 23  1  0
  2 24  1  0
  2 25  1  0
  3 26  1  1
  4 27  1  0
  4 28  1  0
  4 29  1  0
  5 30  1  6
  6 31  1  0
  9 32  1  0
 10 33  1  0
 10 34  1  0
 11 35  1  0
 11 36  1  0
 13 37  1  0
 14 38  1  0
 16 39  1  0
 17 40  1  0
 18 41  1  0
 19 42  1  0
M  END
>  <UniqueID>  (59) 
58

>  <SMILES>  (59) 
CC[C@H](C)[C@H](O)C(=O)NCCc1c[nH]c2ccccc12

>  <Energy>  (59) 
63.473897754314095

>  <Genealogy>  (59) 
CC[C@H](C)[C@H](O)C(=O)NCCc1c[nH]c2ccccc12 (chirality)
CC[C@H](C)[C@H](O)C(=O)NCCc1c[nH]c2ccccc12 (3D coordinates assigned)
CC[C@H](C)[C@H](O)C(=O)NCCc1c[nH]c2ccccc12 (optimized conformer: 63.473897754314095 kcal/mol)

$$$$
untitled_line_59
     RDKit          3D

 40 41  0  0  0  0  0  0  0  0999 V2000
   -4.6835    0.9980    1.3345 C   0  0  0  0  0  0  0  0  0  0  0  0
   -4.1465   -0.0997    0.4066 C   0  0  0  0  0  0  0  0  0  0  0  0
   -5.2940   -0.6570   -0.4509 C   0  0  0  0  0  0  0  0  0  0  0  0
   -2.9966    0.4573   -0.4698 C   0  0  0  0  0  0  0  0  0  0  0  0
   -2.0947   -0.6398   -1.0787 C   0  0  0  0  0  0  0  0  0  0  0  0
   -1.0961   -1.1534   -0.1166 N   0  0  0  0  0  4  0  0  0  0  0  0
    0.1384   -0.3435   -0.0834 C   0  0  0  0  0  0  0  0  0  0  0  0
    1.1265   -0.7533   -1.1879 C   0  0  0  0  0  0  0  0  0  0  0  0
    2.3588    0.0989   -1.1323 C   0  0  0  0  0  0  0  0  0  0  0  0
    2.5839    1.2771   -1.8378 C   0  0  0  0  0  0  0  0  0  0  0  0
    3.7712    1.8198   -1.4834 N   0  0  0  0  0  0  0  0  0  0  0  0
    4.2904    1.0017   -0.5512 C   0  0  0  0  0  0  0  0  0  0  0  0
    5.4969    1.1552    0.1306 C   0  0  0  0  0  0  0  0  0  0  0  0
    5.8384    0.1838    1.0895 C   0  0  0  0  0  0  0  0  0  0  0  0
    4.9744   -0.9043    1.3453 C   0  0  0  0  0  0  0  0  0  0  0  0
    3.7619   -1.0324    0.6434 C   0  0  0  0  0  0  0  0  0  0  0  0
    3.4539   -0.0570   -0.3053 C   0  0  0  0  0  0  0  0  0  0  0  0
   -3.8766    1.3616    2.0061 H   0  0  0  0  0  0  0  0  0  0  0  0
   -5.0724    1.8550    0.7431 H   0  0  0  0  0  0  0  0  0  0  0  0
   -5.5022    0.5993    1.9710 H   0  0  0  0  0  0  0  0  0  0  0  0
   -3.7663   -0.9214    1.0506 H   0  0  0  0  0  0  0  0  0  0  0  0
   -5.7038    0.1304   -1.1194 H   0  0  0  0  0  0  0  0  0  0  0  0
   -4.9506   -1.5099   -1.0703 H   0  0  0  0  0  0  0  0  0  0  0  0
   -6.1128   -1.0287    0.2017 H   0  0  0  0  0  0  0  0  0  0  0  0
   -3.4278    1.0667   -1.2945 H   0  0  0  0  0  0  0  0  0  0  0  0
   -2.3644    1.1475    0.1289 H   0  0  0  0  0  0  0  0  0  0  0  0
   -1.5943   -0.2240   -1.9801 H   0  0  0  0  0  0  0  0  0  0  0  0
   -2.7181   -1.4813   -1.4476 H   0  0  0  0  0  0  0  0  0  0  0  0
   -1.5037   -1.1779    0.8463 H   0  0  0  0  0  0  0  0  0  0  0  0
   -0.8612   -2.1432   -0.3650 H   0  0  0  0  0  0  0  0  0  0  0  0
    0.6382   -0.4881    0.9011 H   0  0  0  0  0  0  0  0  0  0  0  0
   -0.0938    0.7412   -0.1709 H   0  0  0  0  0  0  0  0  0  0  0  0
    1.4135   -1.8193   -1.0618 H   0  0  0  0  0  0  0  0  0  0  0  0
    0.6578   -0.6450   -2.1881 H   0  0  0  0  0  0  0  0  0  0  0  0
    1.9100    1.7181   -2.5608 H   0  0  0  0  0  0  0  0  0  0  0  0
    4.1888    2.7038   -1.8504 H   0  0  0  0  0  0  0  0  0  0  0  0
    6.1492    1.9958   -0.0678 H   0  0  0  0  0  0  0  0  0  0  0  0
    6.7677    0.2728    1.6369 H   0  0  0  0  0  0  0  0  0  0  0  0
    5.2460   -1.6436    2.0876 H   0  0  0  0  0  0  0  0  0  0  0  0
    3.0934   -1.8609    0.8376 H   0  0  0  0  0  0  0  0  0  0  0  0
  1  2  1  0
  2  3  1  0
  2  4  1  0
  4  5  1  0
  5  6  1  0
  6  7  1  0
  7  8  1  0
  8  9  1  0
  9 10  2  0
 10 11  1  0
 11 12  1  0
 12 13  2  0
 13 14  1  0
 14 15  2  0
 15 16  1  0
 16 17  2  0
 17  9  1  0
 17 12  1  0
  1 18  1  0
  1 19  1  0
  1 20  1  0
  2 21  1  0
  3 22  1  0
  3 23  1  0
  3 24  1  0
  4 25  1  0
  4 26  1  0
  5 27  1  0
  5 28  1  0
  6 29  1  0
  6 30  1  0
  7 31  1  0
  7 32  1  0
  8 33  1  0
  8 34  1  0
 10 35  1  0
 11 36  1  0
 13 37  1  0
 14 38  1  0
 15 39  1  0
 16 40  1  0
M  CHG  1   6   1
M  END
>  <UniqueID>  (60) 
59

>  <SMILES>  (60) 
CC(C)CC[NH2+]CCc1c[nH]c2ccccc12

>  <Energy>  (60) 
66.79348475677999

>  <Genealogy>  (60) 
CC(C)CC[NH2+]CCc1c[nH]c2ccccc12 (protonated)
CC(C)CC[NH2+]CCc1c[nH]c2ccccc12 (3D coordinates assigned)
CC(C)CC[NH2+]CCc1c[nH]c2ccccc12 (optimized conformer: 66.79348475677999 kcal/mol)

$$$$
untitled_line_60
     RDKit          3D

 33 35  0  0  0  0  0  0  0  0999 V2000
    2.3841   -1.7837    1.8768 O   0  0  0  0  0  0  0  0  0  0  0  0
    1.2372   -1.5020    2.3178 C   0  0  0  0  0  0  0  0  0  0  0  0
    0.0959   -2.2740    1.9205 N   0  0  0  0  0  0  0  0  0  0  0  0
    0.1809   -3.3910    0.9793 C   0  0  0  0  0  0  0  0  0  0  0  0
    0.4235   -2.9029   -0.4539 C   0  0  0  0  0  0  0  0  0  0  0  0
   -0.6252   -1.9180   -0.8847 C   0  0  0  0  0  0  0  0  0  0  0  0
   -1.9579   -2.2023   -1.1681 C   0  0  0  0  0  0  0  0  0  0  0  0
   -2.6374   -1.0637   -1.4345 N   0  0  0  0  0  0  0  0  0  0  0  0
   -1.7478   -0.0629   -1.3142 C   0  0  0  0  0  0  0  0  0  0  0  0
   -1.9862    1.3017   -1.4717 C   0  0  0  0  0  0  0  0  0  0  0  0
   -0.9081    2.1845   -1.2779 C   0  0  0  0  0  0  0  0  0  0  0  0
    0.3696    1.6893   -0.9361 C   0  0  0  0  0  0  0  0  0  0  0  0
    0.5811    0.3070   -0.7842 C   0  0  0  0  0  0  0  0  0  0  0  0
   -0.5077   -0.5441   -0.9791 C   0  0  0  0  0  0  0  0  0  0  0  0
    1.0832   -0.3942    3.3162 C   0  0  0  0  0  0  0  0  0  0  0  0
    0.0798    0.6819    2.9278 C   0  0  0  0  0  0  0  0  0  0  0  0
    1.5690    0.9660    2.8381 C   0  0  0  0  0  0  0  0  0  0  0  0
   -0.8289   -2.0686    2.3616 H   0  0  0  0  0  0  0  0  0  0  0  0
    0.9985   -4.0785    1.2857 H   0  0  0  0  0  0  0  0  0  0  0  0
   -0.7695   -3.9678    1.0097 H   0  0  0  0  0  0  0  0  0  0  0  0
    1.4341   -2.4520   -0.5356 H   0  0  0  0  0  0  0  0  0  0  0  0
    0.3980   -3.7761   -1.1404 H   0  0  0  0  0  0  0  0  0  0  0  0
   -2.4081   -3.1864   -1.1603 H   0  0  0  0  0  0  0  0  0  0  0  0
   -3.6518   -0.9817   -1.6686 H   0  0  0  0  0  0  0  0  0  0  0  0
   -2.9699    1.6720   -1.7302 H   0  0  0  0  0  0  0  0  0  0  0  0
   -1.0594    3.2502   -1.3901 H   0  0  0  0  0  0  0  0  0  0  0  0
    1.1912    2.3776   -0.7866 H   0  0  0  0  0  0  0  0  0  0  0  0
    1.5576   -0.0748   -0.5188 H   0  0  0  0  0  0  0  0  0  0  0  0
    1.1872   -0.5967    4.4030 H   0  0  0  0  0  0  0  0  0  0  0  0
   -0.4167    0.5599    1.9416 H   0  0  0  0  0  0  0  0  0  0  0  0
   -0.4212    1.1746    3.7875 H   0  0  0  0  0  0  0  0  0  0  0  0
    1.9482    1.6291    3.6440 H   0  0  0  0  0  0  0  0  0  0  0  0
    1.9559    1.0137    1.7980 H   0  0  0  0  0  0  0  0  0  0  0  0
  1  2  2  0
  2  3  1  0
  3  4  1  0
  4  5  1  0
  5  6  1  0
  6  7  2  0
  7  8  1  0
  8  9  1  0
  9 10  2  0
 10 11  1  0
 11 12  2  0
 12 13  1  0
 13 14  2  0
  2 15  1  0
 15 16  1  0
 16 17  1  0
 14  6  1  0
 17 15  1  0
 14  9  1  0
  3 18  1  0
  4 19  1  0
  4 20  1  0
  5 21  1  0
  5 22  1  0
  7 23  1  0
  8 24  1  0
 10 25  1  0
 11 26  1  0
 12 27  1  0
 13 28  1  0
 15 29  1  0
 16 30  1  0
 16 31  1  0
 17 32  1  0
 17 33  1  0
M  END
>  <UniqueID>  (61) 
60

>  <SMILES>  (61) 
O=C(NCCc1c[nH]c2ccccc12)C1CC1

>  <Energy>  (61) 
321.9988040627917

>  <Genealogy>  (61) 
O=C(NCCc1c[nH]c2ccccc12)C1CC1 (3D coordinates assigned)
O=C(NCCc1c[nH]c2ccccc12)C1CC1 (nonaromatic ring conformer: 321.9988040627917 kcal/mol)

$$$$
untitled_line_61
     RDKit          3D

 46 48  0  0  0  0  0  0  0  0999 V2000
   -4.2504    0.8444   -1.0471 C   0  0  0  0  0  0  0  0  0  0  0  0
   -2.8830    1.1931   -0.8562 O   0  0  0  0  0  0  0  0  0  0  0  0
   -1.7900    0.3717   -1.1736 C   0  0  0  0  0  0  0  0  0  0  0  0
   -1.9890   -0.9113   -1.7203 C   0  0  0  0  0  0  0  0  0  0  0  0
   -0.9058   -1.7270   -2.0332 C   0  0  0  0  0  0  0  0  0  0  0  0
    0.3924   -1.2821   -1.8092 C   0  0  0  0  0  0  0  0  0  0  0  0
    0.6262   -0.0111   -1.2636 C   0  0  0  0  0  0  0  0  0  0  0  0
    2.0538    0.4333   -1.0038 C   0  0  0  0  0  0  0  0  0  0  0  0
    2.3796    0.4305    0.4339 N   0  0  0  0  0  4  0  0  0  0  0  0
    2.5124   -0.9375    0.9866 C   0  0  0  0  0  0  0  0  0  0  0  0
    1.8629   -1.0685    2.3733 C   0  0  0  0  0  0  0  0  0  0  0  0
    0.3656   -0.9600    2.2959 C   0  0  0  0  0  0  0  0  0  0  0  0
   -0.4067    0.1441    2.6469 C   0  0  0  0  0  0  0  0  0  0  0  0
   -1.7137   -0.0930    2.3927 N   0  0  0  0  0  0  0  0  0  0  0  0
   -1.7731   -1.3339    1.8798 C   0  0  0  0  0  0  0  0  0  0  0  0
   -2.9096   -2.0143    1.4458 C   0  0  0  0  0  0  0  0  0  0  0  0
   -2.7396   -3.3044    0.9116 C   0  0  0  0  0  0  0  0  0  0  0  0
   -1.4525   -3.8803    0.8277 C   0  0  0  0  0  0  0  0  0  0  0  0
   -0.3238   -3.1719    1.2782 C   0  0  0  0  0  0  0  0  0  0  0  0
   -0.5237   -1.8939    1.8006 C   0  0  0  0  0  0  0  0  0  0  0  0
   -0.4644    0.8301   -0.9436 C   0  0  0  0  0  0  0  0  0  0  0  0
   -0.1673    2.0988   -0.4070 O   0  0  0  0  0  0  0  0  0  0  0  0
   -1.0996    3.0577    0.0784 C   0  0  0  0  0  0  0  0  0  0  0  0
   -4.8885    1.6851   -0.7062 H   0  0  0  0  0  0  0  0  0  0  0  0
   -4.5031   -0.0563   -0.4500 H   0  0  0  0  0  0  0  0  0  0  0  0
   -4.4509    0.6602   -2.1236 H   0  0  0  0  0  0  0  0  0  0  0  0
   -2.9834   -1.2938   -1.9034 H   0  0  0  0  0  0  0  0  0  0  0  0
   -1.0743   -2.7130   -2.4468 H   0  0  0  0  0  0  0  0  0  0  0  0
    1.2195   -1.9362   -2.0557 H   0  0  0  0  0  0  0  0  0  0  0  0
    2.1834    1.4621   -1.4071 H   0  0  0  0  0  0  0  0  0  0  0  0
    2.7786   -0.2045   -1.5590 H   0  0  0  0  0  0  0  0  0  0  0  0
    3.2939    0.9259    0.5568 H   0  0  0  0  0  0  0  0  0  0  0  0
    1.6688    0.9948    0.9520 H   0  0  0  0  0  0  0  0  0  0  0  0
    2.0769   -1.7088    0.3164 H   0  0  0  0  0  0  0  0  0  0  0  0
    3.5913   -1.1939    1.0830 H   0  0  0  0  0  0  0  0  0  0  0  0
    2.2670   -0.2864    3.0520 H   0  0  0  0  0  0  0  0  0  0  0  0
    2.1268   -2.0571    2.8063 H   0  0  0  0  0  0  0  0  0  0  0  0
   -0.0304    1.0748    3.0509 H   0  0  0  0  0  0  0  0  0  0  0  0
   -2.5103    0.5638    2.5490 H   0  0  0  0  0  0  0  0  0  0  0  0
   -3.8910   -1.5635    1.5114 H   0  0  0  0  0  0  0  0  0  0  0  0
   -3.6004   -3.8577    0.5599 H   0  0  0  0  0  0  0  0  0  0  0  0
   -1.3334   -4.8724    0.4124 H   0  0  0  0  0  0  0  0  0  0  0  0
    0.6648   -3.6071    1.2155 H   0  0  0  0  0  0  0  0  0  0  0  0
   -0.5407    3.9231    0.4893 H   0  0  0  0  0  0  0  0  0  0  0  0
   -1.7109    2.6209    0.8958 H   0  0  0  0  0  0  0  0  0  0  0  0
   -1.7418    3.4237   -0.7497 H   0  0  0  0  0  0  0  0  0  0  0  0
  1  2  1  0
  2  3  1  0
  3  4  2  0
  4  5  1  0
  5  6  2  0
  6  7  1  0
  7  8  1  0
  8  9  1  0
  9 10  1  0
 10 11  1  0
 11 12  1  0
 12 13  2  0
 13 14  1  0
 14 15  1  0
 15 16  2  0
 16 17  1  0
 17 18  2  0
 18 19  1  0
 19 20  2  0
  7 21  2  0
 21 22  1  0
 22 23  1  0
 21  3  1  0
 20 12  1  0
 20 15  1  0
  1 24  1  0
  1 25  1  0
  1 26  1  0
  4 27  1  0
  5 28  1  0
  6 29  1  0
  8 30  1  0
  8 31  1  0
  9 32  1  0
  9 33  1  0
 10 34  1  0
 10 35  1  0
 11 36  1  0
 11 37  1  0
 13 38  1  0
 14 39  1  0
 16 40  1  0
 17 41  1  0
 18 42  1  0
 19 43  1  0
 23 44  1  0
 23 45  1  0
 23 46  1  0
M  CHG  1   9   1
M  END
>  <UniqueID>  (62) 
61

>  <SMILES>  (62) 
COc1cccc(C[NH2+]CCc2c[nH]c3ccccc23)c1OC

>  <Energy>  (62) 
75.74779488965913

>  <Genealogy>  (62) 
COc1cccc(C[NH2+]CCc2c[nH]c3ccccc23)c1OC (protonated)
COc1cccc(C[NH2+]CCc2c[nH]c3ccccc23)c1OC (3D coordinates assigned)
COc1cccc(C[NH2+]CCc2c[nH]c3ccccc23)c1OC (optimized conformer: 75.74779488965913 kcal/mol)

$$$$
untitled_line_62
     RDKit          3D

 36 38  0  0  0  0  0  0  0  0999 V2000
    1.3824   -1.0092   -1.7285 O   0  0  0  0  0  0  0  0  0  0  0  0
    1.7987   -0.9069   -0.5422 C   0  0  0  0  0  0  0  0  0  0  0  0
    1.4103   -1.8796    0.4409 N   0  0  0  0  0  0  0  0  0  0  0  0
    0.4465   -2.9453    0.1633 C   0  0  0  0  0  0  0  0  0  0  0  0
   -0.9777   -2.5125    0.5262 C   0  0  0  0  0  0  0  0  0  0  0  0
   -1.4526   -1.3782   -0.3351 C   0  0  0  0  0  0  0  0  0  0  0  0
   -1.8223   -1.4586   -1.6746 C   0  0  0  0  0  0  0  0  0  0  0  0
   -2.1084   -0.2293   -2.1603 N   0  0  0  0  0  0  0  0  0  0  0  0
   -1.9180    0.6266   -1.1413 C   0  0  0  0  0  0  0  0  0  0  0  0
   -2.0700    2.0122   -1.1634 C   0  0  0  0  0  0  0  0  0  0  0  0
   -1.8051    2.7219    0.0218 C   0  0  0  0  0  0  0  0  0  0  0  0
   -1.3976    2.0387    1.1888 C   0  0  0  0  0  0  0  0  0  0  0  0
   -1.2459    0.6405    1.1800 C   0  0  0  0  0  0  0  0  0  0  0  0
   -1.5171   -0.0366   -0.0095 C   0  0  0  0  0  0  0  0  0  0  0  0
    2.7974    0.1703   -0.1965 C   0  0  0  0  0  0  0  0  0  0  0  0
    2.5897    1.4892   -0.9450 C   0  0  0  0  0  0  0  0  0  0  0  0
    2.3546    2.2048    0.3767 C   0  0  0  0  0  0  0  0  0  0  0  0
    2.5239    0.8903    1.1245 C   0  0  0  0  0  0  0  0  0  0  0  0
    1.8400   -1.8425    1.3925 H   0  0  0  0  0  0  0  0  0  0  0  0
    0.7099   -3.8330    0.7778 H   0  0  0  0  0  0  0  0  0  0  0  0
    0.5011   -3.2595   -0.9018 H   0  0  0  0  0  0  0  0  0  0  0  0
   -1.6622   -3.3761    0.3841 H   0  0  0  0  0  0  0  0  0  0  0  0
   -1.0201   -2.2292    1.5991 H   0  0  0  0  0  0  0  0  0  0  0  0
   -1.8584   -2.3646   -2.2654 H   0  0  0  0  0  0  0  0  0  0  0  0
   -2.4023    0.0049   -3.1345 H   0  0  0  0  0  0  0  0  0  0  0  0
   -2.3803    2.5272   -2.0634 H   0  0  0  0  0  0  0  0  0  0  0  0
   -1.9125    3.7985    0.0390 H   0  0  0  0  0  0  0  0  0  0  0  0
   -1.1931    2.5952    2.0940 H   0  0  0  0  0  0  0  0  0  0  0  0
   -0.9267    0.1151    2.0700 H   0  0  0  0  0  0  0  0  0  0  0  0
    3.8459   -0.1939   -0.2685 H   0  0  0  0  0  0  0  0  0  0  0  0
    1.6857    1.5190   -1.5931 H   0  0  0  0  0  0  0  0  0  0  0  0
    3.5141    1.8371   -1.4556 H   0  0  0  0  0  0  0  0  0  0  0  0
    1.3273    2.6193    0.4614 H   0  0  0  0  0  0  0  0  0  0  0  0
    3.1577    2.9364    0.6139 H   0  0  0  0  0  0  0  0  0  0  0  0
    1.5862    0.5816    1.6340 H   0  0  0  0  0  0  0  0  0  0  0  0
    3.4108    0.8964    1.7950 H   0  0  0  0  0  0  0  0  0  0  0  0
  1  2  2  0
  2  3  1  0
  3  4  1  0
  4  5  1  0
  5  6  1  0
  6  7  2  0
  7  8  1  0
  8  9  1  0
  9 10  2  0
 10 11  1  0
 11 12  2  0
 12 13  1  0
 13 14  2  0
  2 15  1  0
 15 16  1  0
 16 17  1  0
 17 18  1  0
 14  6  1  0
 18 15  1  0
 14  9  1  0
  3 19  1  0
  4 20  1  0
  4 21  1  0
  5 22  1  0
  5 23  1  0
  7 24  1  0
  8 25  1  0
 10 26  1  0
 11 27  1  0
 12 28  1  0
 13 29  1  0
 15 30  1  0
 16 31  1  0
 16 32  1  0
 17 33  1  0
 17 34  1  0
 18 35  1  0
 18 36  1  0
M  END
>  <UniqueID>  (63) 
62

>  <SMILES>  (63) 
O=C(NCCc1c[nH]c2ccccc12)C1CCC1

>  <Energy>  (63) 
122.0771830698059

>  <Genealogy>  (63) 
O=C(NCCc1c[nH]c2ccccc12)C1CCC1 (3D coordinates assigned)
O=C(NCCc1c[nH]c2ccccc12)C1CCC1 (nonaromatic ring conformer: 122.0771830698059 kcal/mol)

$$$$
untitled_line_63
     RDKit          3D

 79 80  0  0  0  0  0  0  0  0999 V2000
   -3.4589   -0.2894   -0.8527 C   0  0  0  0  0  0  0  0  0  0  0  0
   -3.6272   -1.6056   -0.0949 C   0  0  0  0  0  0  0  0  0  0  0  0
   -2.3300   -2.0614    0.5922 C   0  0  0  0  0  0  0  0  0  0  0  0
   -2.0565   -1.2902    1.8953 C   0  0  0  0  0  0  0  0  0  0  0  0
   -0.6747   -1.5986    2.4893 C   0  0  0  0  0  0  0  0  0  0  0  0
   -0.5434   -3.0498    2.9889 C   0  0  0  0  0  0  0  0  0  0  0  0
    0.7700   -3.3134    3.7553 C   0  0  0  0  0  0  0  0  0  0  0  0
    2.0554   -2.8768    3.0257 C   0  0  0  0  0  0  0  0  0  0  0  0
    2.2502   -3.5745    1.6699 C   0  0  0  0  0  0  0  0  0  0  0  0
    3.4050   -2.9410    0.8851 C   0  0  0  0  0  0  0  0  0  0  0  0
    3.5087   -3.5503   -0.5233 C   0  0  0  0  0  0  0  0  0  0  0  0
    4.4455   -2.7659   -1.4613 C   0  0  0  0  0  0  0  0  0  0  0  0
    4.0474   -1.2964   -1.7163 C   0  0  0  0  0  0  0  0  0  0  0  0
    2.5716   -1.1176   -2.1095 C   0  0  0  0  0  0  0  0  0  0  0  0
    2.2705    0.3365   -2.4929 C   0  0  0  0  0  0  0  0  0  0  0  0
    0.7648    0.5493   -2.6942 C   0  0  0  0  0  0  0  0  0  0  0  0
    0.4647    1.9838   -3.1536 C   0  0  0  0  0  0  0  0  0  0  0  0
   -1.0506    2.2465   -3.2675 C   0  0  0  0  0  0  0  0  0  0  0  0
   -1.6595    2.6119   -1.9722 N   0  0  0  0  0  4  0  0  0  0  0  0
   -1.5873    4.0643   -1.7273 C   0  0  0  0  0  0  0  0  0  0  0  0
   -2.0290    4.4291   -0.3008 C   0  0  0  0  0  0  0  0  0  0  0  0
   -3.4296    3.9701   -0.0024 C   0  0  0  0  0  0  0  0  0  0  0  0
   -4.5810    4.3098   -0.7076 C   0  0  0  0  0  0  0  0  0  0  0  0
   -5.6602    3.6904   -0.1783 N   0  0  0  0  0  0  0  0  0  0  0  0
   -5.2030    2.9688    0.8591 C   0  0  0  0  0  0  0  0  0  0  0  0
   -5.9467    2.1552    1.7132 C   0  0  0  0  0  0  0  0  0  0  0  0
   -5.2646    1.4896    2.7473 C   0  0  0  0  0  0  0  0  0  0  0  0
   -3.8715    1.6552    2.9075 C   0  0  0  0  0  0  0  0  0  0  0  0
   -3.1448    2.4773    2.0270 C   0  0  0  0  0  0  0  0  0  0  0  0
   -3.8471    3.1199    1.0050 C   0  0  0  0  0  0  0  0  0  0  0  0
   -3.2322    0.5406   -0.1557 H   0  0  0  0  0  0  0  0  0  0  0  0
   -4.4022   -0.0454   -1.3841 H   0  0  0  0  0  0  0  0  0  0  0  0
   -2.6431   -0.3736   -1.6021 H   0  0  0  0  0  0  0  0  0  0  0  0
   -4.4454   -1.5058    0.6520 H   0  0  0  0  0  0  0  0  0  0  0  0
   -3.9331   -2.3858   -0.8255 H   0  0  0  0  0  0  0  0  0  0  0  0
   -2.4374   -3.1408    0.8311 H   0  0  0  0  0  0  0  0  0  0  0  0
   -1.4731   -1.9532   -0.1088 H   0  0  0  0  0  0  0  0  0  0  0  0
   -2.0835   -0.2019    1.6869 H   0  0  0  0  0  0  0  0  0  0  0  0
   -2.8494   -1.5140    2.6425 H   0  0  0  0  0  0  0  0  0  0  0  0
    0.0944   -1.3844    1.7161 H   0  0  0  0  0  0  0  0  0  0  0  0
   -0.5016   -0.9069    3.3431 H   0  0  0  0  0  0  0  0  0  0  0  0
   -0.6217   -3.7591    2.1396 H   0  0  0  0  0  0  0  0  0  0  0  0
   -1.3896   -3.2740    3.6749 H   0  0  0  0  0  0  0  0  0  0  0  0
    0.8357   -4.3994    3.9847 H   0  0  0  0  0  0  0  0  0  0  0  0
    0.7247   -2.7775    4.7285 H   0  0  0  0  0  0  0  0  0  0  0  0
    2.0504   -1.7729    2.8995 H   0  0  0  0  0  0  0  0  0  0  0  0
    2.9247   -3.1180    3.6755 H   0  0  0  0  0  0  0  0  0  0  0  0
    1.3297   -3.4772    1.0587 H   0  0  0  0  0  0  0  0  0  0  0  0
    2.4511   -4.6558    1.8326 H   0  0  0  0  0  0  0  0  0  0  0  0
    4.3626   -3.0947    1.4288 H   0  0  0  0  0  0  0  0  0  0  0  0
    3.2147   -1.8505    0.8164 H   0  0  0  0  0  0  0  0  0  0  0  0
    2.5047   -3.6288   -0.9929 H   0  0  0  0  0  0  0  0  0  0  0  0
    3.8962   -4.5883   -0.4298 H   0  0  0  0  0  0  0  0  0  0  0  0
    5.4757   -2.7882   -1.0446 H   0  0  0  0  0  0  0  0  0  0  0  0
    4.4769   -3.2959   -2.4381 H   0  0  0  0  0  0  0  0  0  0  0  0
    4.6899   -0.9084   -2.5369 H   0  0  0  0  0  0  0  0  0  0  0  0
    4.2732   -0.6835   -0.8175 H   0  0  0  0  0  0  0  0  0  0  0  0
    2.3310   -1.7825   -2.9682 H   0  0  0  0  0  0  0  0  0  0  0  0
    1.9229   -1.3955   -1.2512 H   0  0  0  0  0  0  0  0  0  0  0  0
    2.8135    0.5866   -3.4307 H   0  0  0  0  0  0  0  0  0  0  0  0
    2.6264    1.0151   -1.6860 H   0  0  0  0  0  0  0  0  0  0  0  0
    0.2379    0.3398   -1.7379 H   0  0  0  0  0  0  0  0  0  0  0  0
    0.3913   -0.1642   -3.4619 H   0  0  0  0  0  0  0  0  0  0  0  0
    0.9308    2.7124   -2.4553 H   0  0  0  0  0  0  0  0  0  0  0  0
    0.9260    2.1371   -4.1541 H   0  0  0  0  0  0  0  0  0  0  0  0
   -1.5513    1.3379   -3.6716 H   0  0  0  0  0  0  0  0  0  0  0  0
   -1.2246    3.0468   -4.0221 H   0  0  0  0  0  0  0  0  0  0  0  0
   -1.2025    2.0915   -1.1872 H   0  0  0  0  0  0  0  0  0  0  0  0
   -2.6679    2.3316   -2.0028 H   0  0  0  0  0  0  0  0  0  0  0  0
   -2.2294    4.6052   -2.4586 H   0  0  0  0  0  0  0  0  0  0  0  0
   -0.5453    4.4288   -1.8634 H   0  0  0  0  0  0  0  0  0  0  0  0
   -1.3125    3.9889    0.4237 H   0  0  0  0  0  0  0  0  0  0  0  0
   -1.9866    5.5327   -0.1816 H   0  0  0  0  0  0  0  0  0  0  0  0
   -4.6245    4.9671   -1.5655 H   0  0  0  0  0  0  0  0  0  0  0  0
   -6.6470    3.7620   -0.5112 H   0  0  0  0  0  0  0  0  0  0  0  0
   -7.0153    2.0392    1.5864 H   0  0  0  0  0  0  0  0  0  0  0  0
   -5.8113    0.8495    3.4271 H   0  0  0  0  0  0  0  0  0  0  0  0
   -3.3573    1.1396    3.7077 H   0  0  0  0  0  0  0  0  0  0  0  0
   -2.0763    2.5973    2.1442 H   0  0  0  0  0  0  0  0  0  0  0  0
  1  2  1  0
  2  3  1  0
  3  4  1  0
  4  5  1  0
  5  6  1  0
  6  7  1  0
  7  8  1  0
  8  9  1  0
  9 10  1  0
 10 11  1  0
 11 12  1  0
 12 13  1  0
 13 14  1  0
 14 15  1  0
 15 16  1  0
 16 17  1  0
 17 18  1  0
 18 19  1  0
 19 20  1  0
 20 21  1  0
 21 22  1  0
 22 23  2  0
 23 24  1  0
 24 25  1  0
 25 26  2  0
 26 27  1  0
 27 28  2  0
 28 29  1  0
 29 30  2  0
 30 22  1  0
 30 25  1  0
  1 31  1  0
  1 32  1  0
  1 33  1  0
  2 34  1  0
  2 35  1  0
  3 36  1  0
  3 37  1  0
  4 38  1  0
  4 39  1  0
  5 40  1  0
  5 41  1  0
  6 42  1  0
  6 43  1  0
  7 44  1  0
  7 45  1  0
  8 46  1  0
  8 47  1  0
  9 48  1  0
  9 49  1  0
 10 50  1  0
 10 51  1  0
 11 52  1  0
 11 53  1  0
 12 54  1  0
 12 55  1  0
 13 56  1  0
 13 57  1  0
 14 58  1  0
 14 59  1  0
 15 60  1  0
 15 61  1  0
 16 62  1  0
 16 63  1  0
 17 64  1  0
 17 65  1  0
 18 66  1  0
 18 67  1  0
 19 68  1  0
 19 69  1  0
 20 70  1  0
 20 71  1  0
 21 72  1  0
 21 73  1  0
 23 74  1  0
 24 75  1  0
 26 76  1  0
 27 77  1  0
 28 78  1  0
 29 79  1  0
M  CHG  1  19   1
M  END
>  <UniqueID>  (64) 
63

>  <SMILES>  (64) 
CCCCCCCCCCCCCCCCCC[NH2+]CCc1c[nH]c2ccccc12

>  <Energy>  (64) 
75.76480385590446

>  <Genealogy>  (64) 
CCCCCCCCCCCCCCCCCC[NH2+]CCc1c[nH]c2ccccc12 (protonated)
CCCCCCCCCCCCCCCCCC[NH2+]CCc1c[nH]c2ccccc12 (3D coordinates assigned)
CCCCCCCCCCCCCCCCCC[NH2+]CCc1c[nH]c2ccccc12 (optimized conformer: 75.76480385590446 kcal/mol)

$$$$
untitled_line_64
     RDKit          3D

 34 35  0  0  0  0  0  0  0  0999 V2000
   -2.7001    3.5294   -1.3144 C   0  0  0  0  0  0  0  0  0  0  0  0
   -3.0481    2.4547   -2.3386 C   0  0  0  0  0  0  0  0  0  0  0  0
   -2.1098    1.2868   -2.2243 C   0  0  0  0  0  0  0  0  0  0  0  0
   -1.0869    1.2506   -2.9599 O   0  0  0  0  0  0  0  0  0  0  0  0
   -2.3434    0.2116   -1.2386 C   0  0  0  0  0  0  0  0  0  0  0  0
   -3.3523    0.2657   -0.4833 O   0  0  0  0  0  0  0  0  0  0  0  0
   -1.4302   -0.8903   -1.1318 N   0  0  0  0  0  0  0  0  0  0  0  0
   -1.6330   -1.9524   -0.1448 C   0  0  0  0  0  0  0  0  0  0  0  0
   -0.4917   -2.9757   -0.1731 C   0  0  0  0  0  0  0  0  0  0  0  0
    0.8025   -2.3685    0.2861 C   0  0  0  0  0  0  0  0  0  0  0  0
    1.8397   -1.9116   -0.5221 C   0  0  0  0  0  0  0  0  0  0  0  0
    2.8253   -1.3750    0.2332 N   0  0  0  0  0  0  0  0  0  0  0  0
    2.4162   -1.4824    1.5093 C   0  0  0  0  0  0  0  0  0  0  0  0
    3.0912   -1.0554    2.6520 C   0  0  0  0  0  0  0  0  0  0  0  0
    2.4685   -1.2572    3.8975 C   0  0  0  0  0  0  0  0  0  0  0  0
    1.1989   -1.8724    3.9717 C   0  0  0  0  0  0  0  0  0  0  0  0
    0.5405   -2.2922    2.8014 C   0  0  0  0  0  0  0  0  0  0  0  0
    1.1842   -2.0808    1.5819 C   0  0  0  0  0  0  0  0  0  0  0  0
   -1.6623    3.8925   -1.4744 H   0  0  0  0  0  0  0  0  0  0  0  0
   -2.7925    3.1261   -0.2834 H   0  0  0  0  0  0  0  0  0  0  0  0
   -3.3974    4.3865   -1.4238 H   0  0  0  0  0  0  0  0  0  0  0  0
   -4.0967    2.1203   -2.1860 H   0  0  0  0  0  0  0  0  0  0  0  0
   -2.9800    2.8894   -3.3596 H   0  0  0  0  0  0  0  0  0  0  0  0
   -0.6089   -0.9320   -1.7765 H   0  0  0  0  0  0  0  0  0  0  0  0
   -2.5876   -2.4757   -0.3680 H   0  0  0  0  0  0  0  0  0  0  0  0
   -1.7118   -1.5078    0.8714 H   0  0  0  0  0  0  0  0  0  0  0  0
   -0.3767   -3.3828   -1.2011 H   0  0  0  0  0  0  0  0  0  0  0  0
   -0.7486   -3.8249    0.4957 H   0  0  0  0  0  0  0  0  0  0  0  0
    1.8668   -1.9614   -1.6028 H   0  0  0  0  0  0  0  0  0  0  0  0
    3.7173   -0.9544   -0.1104 H   0  0  0  0  0  0  0  0  0  0  0  0
    4.0622   -0.5819    2.5848 H   0  0  0  0  0  0  0  0  0  0  0  0
    2.9649   -0.9375    4.8044 H   0  0  0  0  0  0  0  0  0  0  0  0
    0.7290   -2.0213    4.9351 H   0  0  0  0  0  0  0  0  0  0  0  0
   -0.4327   -2.7629    2.8507 H   0  0  0  0  0  0  0  0  0  0  0  0
  1  2  1  0
  2  3  1  0
  3  4  2  0
  3  5  1  0
  5  6  2  0
  5  7  1  0
  7  8  1  0
  8  9  1  0
  9 10  1  0
 10 11  2  0
 11 12  1  0
 12 13  1  0
 13 14  2  0
 14 15  1  0
 15 16  2  0
 16 17  1  0
 17 18  2  0
 18 10  1  0
 18 13  1  0
  1 19  1  0
  1 20  1  0
  1 21  1  0
  2 22  1  0
  2 23  1  0
  7 24  1  0
  8 25  1  0
  8 26  1  0
  9 27  1  0
  9 28  1  0
 11 29  1  0
 12 30  1  0
 14 31  1  0
 15 32  1  0
 16 33  1  0
 17 34  1  0
M  END
>  <UniqueID>  (65) 
64

>  <SMILES>  (65) 
CCC(=O)C(=O)NCCc1c[nH]c2ccccc12

>  <Energy>  (65) 
57.13951261189437

>  <Genealogy>  (65) 
CCC(=O)C(=O)NCCc1c[nH]c2ccccc12 (3D coordinates assigned)
CCC(=O)C(=O)NCCc1c[nH]c2ccccc12 (optimized conformer: 57.13951261189437 kcal/mol)

$$$$
untitled_line_65
     RDKit          3D

 41 44  0  0  0  0  0  0  0  0999 V2000
    2.2676   -2.1939    0.2189 C   0  0  0  0  0  0  0  0  0  0  0  0
    2.3568   -0.8524   -0.1395 C   0  0  0  0  0  0  0  0  0  0  0  0
    1.4421   -0.2968   -1.0370 C   0  0  0  0  0  0  0  0  0  0  0  0
    0.3991   -1.0794   -1.5915 C   0  0  0  0  0  0  0  0  0  0  0  0
   -0.5866   -0.5563   -2.4896 C   0  0  0  0  0  0  0  0  0  0  0  0
   -0.6804    0.8498   -2.8440 N   0  0  0  0  0  4  0  0  0  0  0  0
   -1.9115    1.4892   -2.3341 C   0  0  0  0  0  0  0  0  0  0  0  0
   -2.1198    1.3378   -0.8136 C   0  0  0  0  0  0  0  0  0  0  0  0
   -0.9752    1.8749   -0.0008 C   0  0  0  0  0  0  0  0  0  0  0  0
   -0.3601    3.1172   -0.1387 C   0  0  0  0  0  0  0  0  0  0  0  0
    0.6055    3.2733    0.7949 N   0  0  0  0  0  0  0  0  0  0  0  0
    0.5948    2.1501    1.5328 C   0  0  0  0  0  0  0  0  0  0  0  0
    1.4238    1.8408    2.6101 C   0  0  0  0  0  0  0  0  0  0  0  0
    1.2478    0.5953    3.2395 C   0  0  0  0  0  0  0  0  0  0  0  0
    0.2559   -0.3015    2.7860 C   0  0  0  0  0  0  0  0  0  0  0  0
   -0.5681    0.0375    1.6979 C   0  0  0  0  0  0  0  0  0  0  0  0
   -0.3663    1.2780    1.0884 C   0  0  0  0  0  0  0  0  0  0  0  0
   -1.5297   -1.4412   -3.0493 C   0  0  0  0  0  0  0  0  0  0  0  0
   -1.5549   -2.7880   -2.7011 C   0  0  0  0  0  0  0  0  0  0  0  0
   -0.6351   -3.2931   -1.7904 C   0  0  0  0  0  0  0  0  0  0  0  0
    0.3431   -2.4590   -1.2357 C   0  0  0  0  0  0  0  0  0  0  0  0
    1.2708   -2.9969   -0.3294 C   0  0  0  0  0  0  0  0  0  0  0  0
    2.9776   -2.6147    0.9191 H   0  0  0  0  0  0  0  0  0  0  0  0
    3.1368   -0.2342    0.2866 H   0  0  0  0  0  0  0  0  0  0  0  0
    1.5804    0.7467   -1.2600 H   0  0  0  0  0  0  0  0  0  0  0  0
    0.1394    1.4170   -2.5532 H   0  0  0  0  0  0  0  0  0  0  0  0
   -0.6991    0.9140   -3.8887 H   0  0  0  0  0  0  0  0  0  0  0  0
   -1.8911    2.5721   -2.5889 H   0  0  0  0  0  0  0  0  0  0  0  0
   -2.8010    1.0697   -2.8535 H   0  0  0  0  0  0  0  0  0  0  0  0
   -2.2990    0.2697   -0.5727 H   0  0  0  0  0  0  0  0  0  0  0  0
   -3.0384    1.8912   -0.5246 H   0  0  0  0  0  0  0  0  0  0  0  0
   -0.6043    3.8651   -0.8815 H   0  0  0  0  0  0  0  0  0  0  0  0
    1.2291    4.1020    0.9163 H   0  0  0  0  0  0  0  0  0  0  0  0
    2.1822    2.5342    2.9499 H   0  0  0  0  0  0  0  0  0  0  0  0
    1.8777    0.3222    4.0759 H   0  0  0  0  0  0  0  0  0  0  0  0
    0.1325   -1.2590    3.2750 H   0  0  0  0  0  0  0  0  0  0  0  0
   -1.3195   -0.6544    1.3424 H   0  0  0  0  0  0  0  0  0  0  0  0
   -2.2648   -1.0764   -3.7555 H   0  0  0  0  0  0  0  0  0  0  0  0
   -2.2990   -3.4433   -3.1354 H   0  0  0  0  0  0  0  0  0  0  0  0
   -0.6810   -4.3435   -1.5274 H   0  0  0  0  0  0  0  0  0  0  0  0
    1.2263   -4.0422   -0.0469 H   0  0  0  0  0  0  0  0  0  0  0  0
  1  2  2  0
  2  3  1  0
  3  4  2  0
  4  5  1  0
  5  6  1  0
  6  7  1  0
  7  8  1  0
  8  9  1  0
  9 10  2  0
 10 11  1  0
 11 12  1  0
 12 13  2  0
 13 14  1  0
 14 15  2  0
 15 16  1  0
 16 17  2  0
  5 18  2  0
 18 19  1  0
 19 20  2  0
 20 21  1  0
 21 22  2  0
 22  1  1  0
 21  4  1  0
 17  9  1  0
 17 12  1  0
  1 23  1  0
  2 24  1  0
  3 25  1  0
  6 26  1  0
  6 27  1  0
  7 28  1  0
  7 29  1  0
  8 30  1  0
  8 31  1  0
 10 32  1  0
 11 33  1  0
 13 34  1  0
 14 35  1  0
 15 36  1  0
 16 37  1  0
 18 38  1  0
 19 39  1  0
 20 40  1  0
 22 41  1  0
M  CHG  1   6   1
M  END
>  <UniqueID>  (66) 
65

>  <SMILES>  (66) 
c1ccc2c([NH2+]CCc3c[nH]c4ccccc34)cccc2c1

>  <Energy>  (66) 
83.71308919548378

>  <Genealogy>  (66) 
c1ccc2c([NH2+]CCc3c[nH]c4ccccc34)cccc2c1 (protonated)
c1ccc2c([NH2+]CCc3c[nH]c4ccccc34)cccc2c1 (3D coordinates assigned)
c1ccc2c([NH2+]CCc3c[nH]c4ccccc34)cccc2c1 (optimized conformer: 83.71308919548378 kcal/mol)

$$$$
untitled_line_66
     RDKit          3D

 44 47  0  0  0  0  0  0  0  0999 V2000
    4.8765    0.7595    0.1590 C   0  0  0  0  0  0  0  0  0  0  0  0
    3.7955    0.2029   -0.5603 C   0  0  0  0  0  0  0  0  0  0  0  0
    2.4699    0.4588   -0.1657 C   0  0  0  0  0  0  0  0  0  0  0  0
    2.2681    1.2758    0.9469 C   0  0  0  0  0  0  0  0  0  0  0  0
    1.1116    1.6943    1.5758 C   0  0  0  0  0  0  0  0  0  0  0  0
   -0.3007    1.3157    1.2415 C   0  0  0  0  0  0  0  0  0  0  0  0
   -0.6235   -0.0864    1.7837 C   0  0  0  0  0  0  0  0  0  0  0  0
   -2.0577   -0.4201    1.6844 N   0  0  0  0  0  4  0  0  0  0  0  0
   -2.5438   -0.6138    0.3036 C   0  0  0  0  0  0  0  0  0  0  0  0
   -1.8772   -1.7893   -0.3908 C   0  0  0  0  0  0  0  0  0  0  0  0
   -0.8762   -1.5151   -1.3395 C   0  0  0  0  0  0  0  0  0  0  0  0
   -0.1898   -2.5470   -1.9767 C   0  0  0  0  0  0  0  0  0  0  0  0
   -0.4917   -3.8748   -1.6867 C   0  0  0  0  0  0  0  0  0  0  0  0
   -1.4934   -4.1867   -0.7575 C   0  0  0  0  0  0  0  0  0  0  0  0
   -1.7876   -5.4925   -0.4870 N   0  0  0  0  0  4  0  0  0  0  0  0
   -2.7567   -5.8358    0.4017 C   0  0  0  0  0  0  0  0  0  0  0  0
   -3.4840   -4.8498    1.0634 C   0  0  0  0  0  0  0  0  0  0  0  0
   -3.2104   -3.5063    0.8127 C   0  0  0  0  0  0  0  0  0  0  0  0
   -2.2010   -3.1437   -0.1013 C   0  0  0  0  0  0  0  0  0  0  0  0
    1.5286    2.4659    2.6564 C   0  0  0  0  0  0  0  0  0  0  0  0
    2.8788    2.5410    2.6896 N   0  0  0  0  0  0  0  0  0  0  0  0
    3.3174    1.8134    1.6476 C   0  0  0  0  0  0  0  0  0  0  0  0
    4.6414    1.5757    1.2807 C   0  0  0  0  0  0  0  0  0  0  0  0
    5.8923    0.5544   -0.1528 H   0  0  0  0  0  0  0  0  0  0  0  0
    3.9881   -0.4261   -1.4197 H   0  0  0  0  0  0  0  0  0  0  0  0
    1.6389    0.0328   -0.7101 H   0  0  0  0  0  0  0  0  0  0  0  0
   -0.4220    1.3447    0.1394 H   0  0  0  0  0  0  0  0  0  0  0  0
   -0.9937    2.0625    1.6856 H   0  0  0  0  0  0  0  0  0  0  0  0
   -0.0031   -0.8494    1.2657 H   0  0  0  0  0  0  0  0  0  0  0  0
   -0.3326   -0.1206    2.8582 H   0  0  0  0  0  0  0  0  0  0  0  0
   -2.2268   -1.2914    2.2372 H   0  0  0  0  0  0  0  0  0  0  0  0
   -2.6195    0.3407    2.1334 H   0  0  0  0  0  0  0  0  0  0  0  0
   -2.4128    0.3198   -0.2843 H   0  0  0  0  0  0  0  0  0  0  0  0
   -3.6434   -0.7718    0.3173 H   0  0  0  0  0  0  0  0  0  0  0  0
   -0.6188   -0.4928   -1.5851 H   0  0  0  0  0  0  0  0  0  0  0  0
    0.5829   -2.3149   -2.6984 H   0  0  0  0  0  0  0  0  0  0  0  0
    0.0537   -4.6627   -2.1914 H   0  0  0  0  0  0  0  0  0  0  0  0
   -1.2649   -6.2596   -0.9680 H   0  0  0  0  0  0  0  0  0  0  0  0
   -2.9683   -6.8799    0.5953 H   0  0  0  0  0  0  0  0  0  0  0  0
   -4.2588   -5.1260    1.7671 H   0  0  0  0  0  0  0  0  0  0  0  0
   -3.7998   -2.7688    1.3373 H   0  0  0  0  0  0  0  0  0  0  0  0
    0.8798    2.9354    3.3843 H   0  0  0  0  0  0  0  0  0  0  0  0
    3.4593    3.0491    3.3934 H   0  0  0  0  0  0  0  0  0  0  0  0
    5.4631    2.0015    1.8419 H   0  0  0  0  0  0  0  0  0  0  0  0
  1  2  2  0
  2  3  1  0
  3  4  2  0
  4  5  1  0
  5  6  1  0
  6  7  1  0
  7  8  1  0
  8  9  1  0
  9 10  1  0
 10 11  2  0
 11 12  1  0
 12 13  2  0
 13 14  1  0
 14 15  2  0
 15 16  1  0
 16 17  2  0
 17 18  1  0
 18 19  2  0
  5 20  2  0
 20 21  1  0
 21 22  1  0
 22 23  2  0
 23  1  1  0
 22  4  1  0
 19 10  1  0
 19 14  1  0
  1 24  1  0
  2 25  1  0
  3 26  1  0
  6 27  1  0
  6 28  1  0
  7 29  1  0
  7 30  1  0
  8 31  1  0
  8 32  1  0
  9 33  1  0
  9 34  1  0
 11 35  1  0
 12 36  1  0
 13 37  1  0
 15 38  1  0
 16 39  1  0
 17 40  1  0
 18 41  1  0
 20 42  1  0
 21 43  1  0
 23 44  1  0
M  CHG  2   8   1  15   1
M  END
>  <UniqueID>  (67) 
66

>  <SMILES>  (67) 
c1ccc2c(CC[NH2+]Cc3cccc4[nH+]cccc34)c[nH]c2c1

>  <Energy>  (67) 
84.44405985843214

>  <Genealogy>  (67) 
c1ccc2c(CC[NH2+]Cc3cccc4[nH+]cccc34)c[nH]c2c1 (protonated)
c1ccc2c(CC[NH2+]Cc3cccc4[nH+]cccc34)c[nH]c2c1 (3D coordinates assigned)
c1ccc2c(CC[NH2+]Cc3cccc4[nH+]cccc34)c[nH]c2c1 (optimized conformer: 84.44405985843214 kcal/mol)

$$$$
untitled_line_67
     RDKit          3D

 31 32  0  0  0  0  0  0  0  0999 V2000
    4.1909   -4.2733    0.1592 C   0  0  0  0  0  0  0  0  0  0  0  0
    2.5677   -3.9482    0.9163 S   0  0  0  0  0  0  0  0  0  0  0  0
    3.0049   -2.2870    1.4513 C   0  0  0  0  0  0  0  0  0  0  0  0
    3.5477   -2.0997    2.7738 S   0  0  0  0  0  0  0  0  0  0  0  0
    2.8159   -1.1672    0.5576 N   0  0  0  0  0  4  0  0  0  0  0  0
    1.5938   -0.4262    0.9050 C   0  0  0  0  0  0  0  0  0  0  0  0
    1.3550    0.7215   -0.0830 C   0  0  0  0  0  0  0  0  0  0  0  0
    0.1079    1.4734    0.2739 C   0  0  0  0  0  0  0  0  0  0  0  0
    0.0252    2.6142    1.0665 C   0  0  0  0  0  0  0  0  0  0  0  0
   -1.2669    2.9763    1.2385 N   0  0  0  0  0  0  0  0  0  0  0  0
   -1.9997    2.0667    0.5727 C   0  0  0  0  0  0  0  0  0  0  0  0
   -3.3894    2.0079    0.4757 C   0  0  0  0  0  0  0  0  0  0  0  0
   -3.9528    0.9487   -0.2595 C   0  0  0  0  0  0  0  0  0  0  0  0
   -3.1244   -0.0189   -0.8706 C   0  0  0  0  0  0  0  0  0  0  0  0
   -1.7249    0.0646   -0.7540 C   0  0  0  0  0  0  0  0  0  0  0  0
   -1.1959    1.1294   -0.0241 C   0  0  0  0  0  0  0  0  0  0  0  0
    4.1869   -5.2905   -0.2832 H   0  0  0  0  0  0  0  0  0  0  0  0
    4.3937   -3.5333   -0.6428 H   0  0  0  0  0  0  0  0  0  0  0  0
    4.9889   -4.2195    0.9289 H   0  0  0  0  0  0  0  0  0  0  0  0
    3.6494   -0.5328    0.5910 H   0  0  0  0  0  0  0  0  0  0  0  0
    2.7245   -1.5319   -0.4191 H   0  0  0  0  0  0  0  0  0  0  0  0
    1.6841   -0.0024    1.9311 H   0  0  0  0  0  0  0  0  0  0  0  0
    0.7169   -1.1134    0.8833 H   0  0  0  0  0  0  0  0  0  0  0  0
    1.2591    0.3196   -1.1145 H   0  0  0  0  0  0  0  0  0  0  0  0
    2.2217    1.4172   -0.0650 H   0  0  0  0  0  0  0  0  0  0  0  0
    0.8635    3.1420    1.5023 H   0  0  0  0  0  0  0  0  0  0  0  0
   -1.6198    3.7894    1.7906 H   0  0  0  0  0  0  0  0  0  0  0  0
   -4.0160    2.7503    0.9527 H   0  0  0  0  0  0  0  0  0  0  0  0
   -5.0282    0.8731   -0.3546 H   0  0  0  0  0  0  0  0  0  0  0  0
   -3.5692   -0.8311   -1.4307 H   0  0  0  0  0  0  0  0  0  0  0  0
   -1.0845   -0.6756   -1.2157 H   0  0  0  0  0  0  0  0  0  0  0  0
  1  2  1  0
  2  3  1  0
  3  4  2  0
  3  5  1  0
  5  6  1  0
  6  7  1  0
  7  8  1  0
  8  9  2  0
  9 10  1  0
 10 11  1  0
 11 12  2  0
 12 13  1  0
 13 14  2  0
 14 15  1  0
 15 16  2  0
 16  8  1  0
 16 11  1  0
  1 17  1  0
  1 18  1  0
  1 19  1  0
  5 20  1  0
  5 21  1  0
  6 22  1  0
  6 23  1  0
  7 24  1  0
  7 25  1  0
  9 26  1  0
 10 27  1  0
 12 28  1  0
 13 29  1  0
 14 30  1  0
 15 31  1  0
M  CHG  1   5   1
M  END
>  <UniqueID>  (68) 
67

>  <SMILES>  (68) 
CSC(=S)[NH2+]CCc1c[nH]c2ccccc12

>  <Energy>  (68) 
57.08420969635535

>  <Genealogy>  (68) 
CSC(=S)[NH2+]CCc1c[nH]c2ccccc12 (protonated)
CSC(=S)[NH2+]CCc1c[nH]c2ccccc12 (3D coordinates assigned)
CSC(=S)[NH2+]CCc1c[nH]c2ccccc12 (optimized conformer: 57.08420969635535 kcal/mol)

$$$$
untitled_line_68
     RDKit          3D

 48 51  0  0  0  0  0  0  0  0999 V2000
    2.5181    1.0772    2.9656 C   0  0  0  0  0  0  0  0  0  0  0  0
    1.3810    1.2273    3.7588 C   0  0  0  0  0  0  0  0  0  0  0  0
    0.1626    1.5792    3.1757 C   0  0  0  0  0  0  0  0  0  0  0  0
    0.0670    1.7815    1.7877 C   0  0  0  0  0  0  0  0  0  0  0  0
    1.2208    1.6183    0.9807 C   0  0  0  0  0  0  0  0  0  0  0  0
    2.4418    1.2812    1.5867 C   0  0  0  0  0  0  0  0  0  0  0  0
    1.2125    1.9119   -0.5029 C   0  0  0  0  0  0  0  0  0  0  0  0
   -0.1898    1.9797   -1.1200 C   0  0  0  0  0  0  0  0  0  0  0  0
   -1.1609    2.7323   -0.2113 C   0  0  0  0  0  0  0  0  0  0  0  0
   -1.2919    2.0697    1.1769 C   0  0  1  0  0  0  0  0  0  0  0  0
   -2.2302    0.8219    1.1701 C   0  0  0  0  0  0  0  0  0  0  0  0
   -1.5059   -0.4610    1.0789 N   0  0  0  0  0  4  0  0  0  0  0  0
   -2.4119   -1.5608    0.7106 C   0  0  0  0  0  0  0  0  0  0  0  0
   -1.6843   -2.9154    0.7067 C   0  0  0  0  0  0  0  0  0  0  0  0
   -0.5863   -2.9521   -0.3182 C   0  0  0  0  0  0  0  0  0  0  0  0
   -0.7438   -3.1412   -1.6879 C   0  0  0  0  0  0  0  0  0  0  0  0
    0.4365   -2.9750   -2.3270 N   0  0  0  0  0  0  0  0  0  0  0  0
    1.3351   -2.6685   -1.3753 C   0  0  0  0  0  0  0  0  0  0  0  0
    2.6834   -2.3625   -1.5546 C   0  0  0  0  0  0  0  0  0  0  0  0
    3.4391   -2.0278   -0.4162 C   0  0  0  0  0  0  0  0  0  0  0  0
    2.8362   -2.0023    0.8604 C   0  0  0  0  0  0  0  0  0  0  0  0
    1.4711   -2.3052    1.0105 C   0  0  0  0  0  0  0  0  0  0  0  0
    0.7492   -2.6432   -0.1355 C   0  0  0  0  0  0  0  0  0  0  0  0
    3.4626    0.8076    3.4203 H   0  0  0  0  0  0  0  0  0  0  0  0
    1.4428    1.0677    4.8275 H   0  0  0  0  0  0  0  0  0  0  0  0
   -0.7143    1.6776    3.8036 H   0  0  0  0  0  0  0  0  0  0  0  0
    3.3384    1.1767    0.9879 H   0  0  0  0  0  0  0  0  0  0  0  0
    1.7194    2.8884   -0.6622 H   0  0  0  0  0  0  0  0  0  0  0  0
    1.7982    1.1344   -1.0408 H   0  0  0  0  0  0  0  0  0  0  0  0
   -0.1255    2.5097   -2.0949 H   0  0  0  0  0  0  0  0  0  0  0  0
   -0.5721    0.9630   -1.3408 H   0  0  0  0  0  0  0  0  0  0  0  0
   -0.7887    3.7730   -0.0811 H   0  0  0  0  0  0  0  0  0  0  0  0
   -2.1536    2.8067   -0.7055 H   0  0  0  0  0  0  0  0  0  0  0  0
   -1.7884    2.8325    1.8188 H   0  0  0  0  0  0  0  0  0  0  0  0
   -2.8236    0.8262    2.1126 H   0  0  0  0  0  0  0  0  0  0  0  0
   -2.9674    0.9152    0.3411 H   0  0  0  0  0  0  0  0  0  0  0  0
   -0.7518   -0.3921    0.3638 H   0  0  0  0  0  0  0  0  0  0  0  0
   -1.0758   -0.6769    2.0086 H   0  0  0  0  0  0  0  0  0  0  0  0
   -3.2513   -1.6184    1.4395 H   0  0  0  0  0  0  0  0  0  0  0  0
   -2.8447   -1.3792   -0.2994 H   0  0  0  0  0  0  0  0  0  0  0  0
   -1.2731   -3.1277    1.7165 H   0  0  0  0  0  0  0  0  0  0  0  0
   -2.4181   -3.7166    0.4735 H   0  0  0  0  0  0  0  0  0  0  0  0
   -1.6771   -3.3591   -2.1907 H   0  0  0  0  0  0  0  0  0  0  0  0
    0.6049   -3.0422   -3.3553 H   0  0  0  0  0  0  0  0  0  0  0  0
    3.1343   -2.3748   -2.5384 H   0  0  0  0  0  0  0  0  0  0  0  0
    4.4881   -1.7834   -0.5202 H   0  0  0  0  0  0  0  0  0  0  0  0
    3.4261   -1.7380    1.7283 H   0  0  0  0  0  0  0  0  0  0  0  0
    1.0022   -2.2703    1.9848 H   0  0  0  0  0  0  0  0  0  0  0  0
  1  2  2  0
  2  3  1  0
  3  4  2  0
  4  5  1  0
  5  6  2  0
  5  7  1  0
  7  8  1  0
  8  9  1  0
  9 10  1  0
 10 11  1  0
 11 12  1  0
 12 13  1  0
 13 14  1  0
 14 15  1  0
 15 16  2  0
 16 17  1  0
 17 18  1  0
 18 19  2  0
 19 20  1  0
 20 21  2  0
 21 22  1  0
 22 23  2  0
  6  1  1  0
 23 15  1  0
 10  4  1  0
 23 18  1  0
  1 24  1  0
  2 25  1  0
  3 26  1  0
  6 27  1  0
  7 28  1  0
  7 29  1  0
  8 30  1  0
  8 31  1  0
  9 32  1  0
  9 33  1  0
 10 34  1  1
 11 35  1  0
 11 36  1  0
 12 37  1  0
 12 38  1  0
 13 39  1  0
 13 40  1  0
 14 41  1  0
 14 42  1  0
 16 43  1  0
 17 44  1  0
 19 45  1  0
 20 46  1  0
 21 47  1  0
 22 48  1  0
M  CHG  1  12   1
M  END
>  <UniqueID>  (69) 
68

>  <SMILES>  (69) 
c1ccc2c(c1)CCC[C@H]2C[NH2+]CCc1c[nH]c2ccccc12

>  <Energy>  (69) 
80.57512999617201

>  <Genealogy>  (69) 
c1ccc2c(c1)CCCC2C[NH2+]CCc1c[nH]c2ccccc12 (protonated)
c1ccc2c(c1)CCC[C@H]2C[NH2+]CCc1c[nH]c2ccccc12 (chirality)
c1ccc2c(c1)CCC[C@H]2C[NH2+]CCc1c[nH]c2ccccc12 (3D coordinates assigned)
c1ccc2c(c1)CCC[C@H]2C[NH2+]CCc1c[nH]c2ccccc12 (nonaromatic ring conformer: 80.57512999617201 kcal/mol)

$$$$
untitled_line_69
     RDKit          3D

 41 43  0  0  0  0  0  0  0  0999 V2000
    1.1146   -1.8541   -2.1137 F   0  0  0  0  0  0  0  0  0  0  0  0
    2.2614   -1.8361   -1.3406 C   0  0  0  0  0  0  0  0  0  0  0  0
    3.0497   -2.9089   -1.7211 F   0  0  0  0  0  0  0  0  0  0  0  0
    1.9277   -2.0114   -0.0123 F   0  0  0  0  0  0  0  0  0  0  0  0
    2.9822   -0.5132   -1.5202 C   0  0  0  0  0  0  0  0  0  0  0  0
    4.2558   -0.4981   -2.1281 C   0  0  0  0  0  0  0  0  0  0  0  0
    4.9484    0.6985   -2.3138 C   0  0  0  0  0  0  0  0  0  0  0  0
    4.3864    1.9027   -1.9020 C   0  0  0  0  0  0  0  0  0  0  0  0
    3.1262    1.9172   -1.3072 C   0  0  0  0  0  0  0  0  0  0  0  0
    2.4031    0.7250   -1.1149 C   0  0  0  0  0  0  0  0  0  0  0  0
    1.0420    0.8345   -0.4513 C   0  0  0  0  0  0  0  0  0  0  0  0
    1.1755    0.9492    1.0133 N   0  0  0  0  0  4  0  0  0  0  0  0
   -0.0970    1.3227    1.6700 C   0  0  0  0  0  0  0  0  0  0  0  0
   -0.8922    0.1133    2.1979 C   0  0  0  0  0  0  0  0  0  0  0  0
   -1.4219   -0.7636    1.1018 C   0  0  0  0  0  0  0  0  0  0  0  0
   -1.0133   -2.0622    0.8138 C   0  0  0  0  0  0  0  0  0  0  0  0
   -1.6845   -2.5430   -0.2570 N   0  0  0  0  0  0  0  0  0  0  0  0
   -2.5200   -1.5630   -0.6423 C   0  0  0  0  0  0  0  0  0  0  0  0
   -3.4214   -1.5922   -1.7053 C   0  0  0  0  0  0  0  0  0  0  0  0
   -4.2125   -0.4504   -1.9281 C   0  0  0  0  0  0  0  0  0  0  0  0
   -4.0891    0.6801   -1.0904 C   0  0  0  0  0  0  0  0  0  0  0  0
   -3.1711    0.6811   -0.0245 C   0  0  0  0  0  0  0  0  0  0  0  0
   -2.3946   -0.4623    0.1670 C   0  0  0  0  0  0  0  0  0  0  0  0
    4.7269   -1.4124   -2.4643 H   0  0  0  0  0  0  0  0  0  0  0  0
    5.9258    0.6907   -2.7790 H   0  0  0  0  0  0  0  0  0  0  0  0
    4.9279    2.8290   -2.0451 H   0  0  0  0  0  0  0  0  0  0  0  0
    2.7086    2.8667   -0.9945 H   0  0  0  0  0  0  0  0  0  0  0  0
    0.5306    1.7341   -0.8626 H   0  0  0  0  0  0  0  0  0  0  0  0
    0.3976   -0.0233   -0.7146 H   0  0  0  0  0  0  0  0  0  0  0  0
    1.5481    0.0551    1.4082 H   0  0  0  0  0  0  0  0  0  0  0  0
    1.8741    1.7003    1.2254 H   0  0  0  0  0  0  0  0  0  0  0  0
   -0.7356    1.9463    1.0071 H   0  0  0  0  0  0  0  0  0  0  0  0
    0.1310    1.9637    2.5514 H   0  0  0  0  0  0  0  0  0  0  0  0
   -0.2536   -0.4830    2.8851 H   0  0  0  0  0  0  0  0  0  0  0  0
   -1.7539    0.4851    2.7927 H   0  0  0  0  0  0  0  0  0  0  0  0
   -0.2644   -2.6228    1.3575 H   0  0  0  0  0  0  0  0  0  0  0  0
   -1.5739   -3.4858   -0.6920 H   0  0  0  0  0  0  0  0  0  0  0  0
   -3.5118   -2.4649   -2.3390 H   0  0  0  0  0  0  0  0  0  0  0  0
   -4.9226   -0.4399   -2.7446 H   0  0  0  0  0  0  0  0  0  0  0  0
   -4.7067    1.5508   -1.2681 H   0  0  0  0  0  0  0  0  0  0  0  0
   -3.0812    1.5407    0.6259 H   0  0  0  0  0  0  0  0  0  0  0  0
  1  2  1  0
  2  3  1  0
  2  4  1  0
  2  5  1  0
  5  6  2  0
  6  7  1  0
  7  8  2  0
  8  9  1  0
  9 10  2  0
 10 11  1  0
 11 12  1  0
 12 13  1  0
 13 14  1  0
 14 15  1  0
 15 16  2  0
 16 17  1  0
 17 18  1  0
 18 19  2  0
 19 20  1  0
 20 21  2  0
 21 22  1  0
 22 23  2  0
 10  5  1  0
 23 15  1  0
 23 18  1  0
  6 24  1  0
  7 25  1  0
  8 26  1  0
  9 27  1  0
 11 28  1  0
 11 29  1  0
 12 30  1  0
 12 31  1  0
 13 32  1  0
 13 33  1  0
 14 34  1  0
 14 35  1  0
 16 36  1  0
 17 37  1  0
 19 38  1  0
 20 39  1  0
 21 40  1  0
 22 41  1  0
M  CHG  1  12   1
M  END
>  <UniqueID>  (70) 
69

>  <SMILES>  (70) 
FC(F)(F)c1ccccc1C[NH2+]CCc1c[nH]c2ccccc12

>  <Energy>  (70) 
77.94002032445482

>  <Genealogy>  (70) 
FC(F)(F)c1ccccc1C[NH2+]CCc1c[nH]c2ccccc12 (protonated)
FC(F)(F)c1ccccc1C[NH2+]CCc1c[nH]c2ccccc12 (3D coordinates assigned)
FC(F)(F)c1ccccc1C[NH2+]CCc1c[nH]c2ccccc12 (optimized conformer: 77.94002032445482 kcal/mol)

$$$$
untitled_line_70
     RDKit          3D

 64 65  0  0  0  0  0  0  0  0999 V2000
   -0.1416   -1.9311   -6.7102 C   0  0  0  0  0  0  0  0  0  0  0  0
   -1.4389   -1.9588   -5.9067 C   0  0  0  0  0  0  0  0  0  0  0  0
   -1.2023   -1.5168   -4.4578 C   0  0  0  0  0  0  0  0  0  0  0  0
   -2.5072   -1.5624   -3.6489 C   0  0  0  0  0  0  0  0  0  0  0  0
   -2.2925   -1.2983   -2.1473 C   0  0  0  0  0  0  0  0  0  0  0  0
   -1.7430    0.0978   -1.8027 C   0  0  0  0  0  0  0  0  0  0  0  0
   -2.7217    1.2322   -2.1574 C   0  0  0  0  0  0  0  0  0  0  0  0
   -2.1905    2.6171   -1.7520 C   0  0  0  0  0  0  0  0  0  0  0  0
   -2.2306    2.8404   -0.2310 C   0  0  0  0  0  0  0  0  0  0  0  0
   -1.8152    4.2645    0.1788 C   0  0  0  0  0  0  0  0  0  0  0  0
   -0.3823    4.6730   -0.2245 C   0  0  0  0  0  0  0  0  0  0  0  0
    0.7228    3.6726    0.1605 C   0  0  0  0  0  0  0  0  0  0  0  0
    0.8204    3.4257    1.6744 C   0  0  0  0  0  0  0  0  0  0  0  0
    1.8942    2.4621    1.9676 N   0  0  0  0  0  4  0  0  0  0  0  0
    2.0460    2.2003    3.4118 C   0  0  0  0  0  0  0  0  0  0  0  0
    0.8564    1.4484    4.0452 C   0  0  0  0  0  0  0  0  0  0  0  0
    0.4853    0.2009    3.2950 C   0  0  0  0  0  0  0  0  0  0  0  0
   -0.6355    0.0241    2.4886 C   0  0  0  0  0  0  0  0  0  0  0  0
   -0.6233   -1.2050    1.9245 N   0  0  0  0  0  0  0  0  0  0  0  0
    0.4959   -1.8047    2.3657 C   0  0  0  0  0  0  0  0  0  0  0  0
    0.9463   -3.0867    2.0531 C   0  0  0  0  0  0  0  0  0  0  0  0
    2.1555   -3.5175    2.6292 C   0  0  0  0  0  0  0  0  0  0  0  0
    2.8790   -2.6670    3.4945 C   0  0  0  0  0  0  0  0  0  0  0  0
    2.4005   -1.3778    3.7918 C   0  0  0  0  0  0  0  0  0  0  0  0
    1.1994   -0.9782    3.2050 C   0  0  0  0  0  0  0  0  0  0  0  0
    0.2859   -0.9053   -6.7201 H   0  0  0  0  0  0  0  0  0  0  0  0
   -0.3460   -2.2411   -7.7566 H   0  0  0  0  0  0  0  0  0  0  0  0
    0.5988   -2.6332   -6.2700 H   0  0  0  0  0  0  0  0  0  0  0  0
   -1.8482   -2.9929   -5.9233 H   0  0  0  0  0  0  0  0  0  0  0  0
   -2.1760   -1.2799   -6.3891 H   0  0  0  0  0  0  0  0  0  0  0  0
   -0.8028   -0.4802   -4.4644 H   0  0  0  0  0  0  0  0  0  0  0  0
   -0.4505   -2.1877   -3.9862 H   0  0  0  0  0  0  0  0  0  0  0  0
   -2.9539   -2.5762   -3.7478 H   0  0  0  0  0  0  0  0  0  0  0  0
   -3.2421   -0.8447   -4.0697 H   0  0  0  0  0  0  0  0  0  0  0  0
   -1.5909   -2.0624   -1.7468 H   0  0  0  0  0  0  0  0  0  0  0  0
   -3.2603   -1.4436   -1.6197 H   0  0  0  0  0  0  0  0  0  0  0  0
   -0.7651    0.2649   -2.3005 H   0  0  0  0  0  0  0  0  0  0  0  0
   -1.5519    0.1055   -0.7103 H   0  0  0  0  0  0  0  0  0  0  0  0
   -2.8759    1.2477   -3.2564 H   0  0  0  0  0  0  0  0  0  0  0  0
   -3.7081    1.0504   -1.6778 H   0  0  0  0  0  0  0  0  0  0  0  0
   -1.1560    2.7365   -2.1378 H   0  0  0  0  0  0  0  0  0  0  0  0
   -2.8235    3.3899   -2.2402 H   0  0  0  0  0  0  0  0  0  0  0  0
   -3.2685    2.6703    0.1296 H   0  0  0  0  0  0  0  0  0  0  0  0
   -1.5843    2.1075    0.2880 H   0  0  0  0  0  0  0  0  0  0  0  0
   -2.5269    4.9904   -0.2712 H   0  0  0  0  0  0  0  0  0  0  0  0
   -1.9239    4.3617    1.2802 H   0  0  0  0  0  0  0  0  0  0  0  0
   -0.3470    4.8298   -1.3239 H   0  0  0  0  0  0  0  0  0  0  0  0
   -0.1539    5.6561    0.2418 H   0  0  0  0  0  0  0  0  0  0  0  0
    0.5677    2.7099   -0.3708 H   0  0  0  0  0  0  0  0  0  0  0  0
    1.6928    4.0832   -0.1952 H   0  0  0  0  0  0  0  0  0  0  0  0
    1.0225    4.3912    2.1898 H   0  0  0  0  0  0  0  0  0  0  0  0
   -0.1493    3.0284    2.0346 H   0  0  0  0  0  0  0  0  0  0  0  0
    2.7996    2.8591    1.6224 H   0  0  0  0  0  0  0  0  0  0  0  0
    1.7270    1.5663    1.4533 H   0  0  0  0  0  0  0  0  0  0  0  0
    2.9663    1.5966    3.5698 H   0  0  0  0  0  0  0  0  0  0  0  0
    2.1994    3.1576    3.9576 H   0  0  0  0  0  0  0  0  0  0  0  0
    1.1278    1.1667    5.0850 H   0  0  0  0  0  0  0  0  0  0  0  0
   -0.0241    2.1208    4.1211 H   0  0  0  0  0  0  0  0  0  0  0  0
   -1.4157    0.7548    2.3245 H   0  0  0  0  0  0  0  0  0  0  0  0
   -1.3393   -1.6028    1.2766 H   0  0  0  0  0  0  0  0  0  0  0  0
    0.3849   -3.7310    1.3887 H   0  0  0  0  0  0  0  0  0  0  0  0
    2.5335   -4.5073    2.4087 H   0  0  0  0  0  0  0  0  0  0  0  0
    3.8072   -3.0101    3.9334 H   0  0  0  0  0  0  0  0  0  0  0  0
    2.9474   -0.7247    4.4588 H   0  0  0  0  0  0  0  0  0  0  0  0
  1  2  1  0
  2  3  1  0
  3  4  1  0
  4  5  1  0
  5  6  1  0
  6  7  1  0
  7  8  1  0
  8  9  1  0
  9 10  1  0
 10 11  1  0
 11 12  1  0
 12 13  1  0
 13 14  1  0
 14 15  1  0
 15 16  1  0
 16 17  1  0
 17 18  2  0
 18 19  1  0
 19 20  1  0
 20 21  2  0
 21 22  1  0
 22 23  2  0
 23 24  1  0
 24 25  2  0
 25 17  1  0
 25 20  1  0
  1 26  1  0
  1 27  1  0
  1 28  1  0
  2 29  1  0
  2 30  1  0
  3 31  1  0
  3 32  1  0
  4 33  1  0
  4 34  1  0
  5 35  1  0
  5 36  1  0
  6 37  1  0
  6 38  1  0
  7 39  1  0
  7 40  1  0
  8 41  1  0
  8 42  1  0
  9 43  1  0
  9 44  1  0
 10 45  1  0
 10 46  1  0
 11 47  1  0
 11 48  1  0
 12 49  1  0
 12 50  1  0
 13 51  1  0
 13 52  1  0
 14 53  1  0
 14 54  1  0
 15 55  1  0
 15 56  1  0
 16 57  1  0
 16 58  1  0
 18 59  1  0
 19 60  1  0
 21 61  1  0
 22 62  1  0
 23 63  1  0
 24 64  1  0
M  CHG  1  14   1
M  END
>  <UniqueID>  (71) 
70

>  <SMILES>  (71) 
CCCCCCCCCCCCC[NH2+]CCc1c[nH]c2ccccc12

>  <Energy>  (71) 
71.89874776025546

>  <Genealogy>  (71) 
CCCCCCCCCCCCC[NH2+]CCc1c[nH]c2ccccc12 (protonated)
CCCCCCCCCCCCC[NH2+]CCc1c[nH]c2ccccc12 (3D coordinates assigned)
CCCCCCCCCCCCC[NH2+]CCc1c[nH]c2ccccc12 (optimized conformer: 71.89874776025546 kcal/mol)

$$$$
untitled_line_71
     RDKit          3D

 54 58  0  0  0  0  0  0  0  0999 V2000
    3.5248    2.9544    1.3112 O   0  0  0  0  0  0  0  0  0  0  0  0
    2.4956    2.0038    1.1916 C   0  0  1  0  0  0  0  0  0  0  0  0
    2.1067    1.8090   -0.2946 C   0  0  0  0  0  0  0  0  0  0  0  0
    1.4895    3.0161   -0.8692 N   0  0  0  0  0  0  0  0  0  0  0  0
    0.0760    3.1702   -0.4803 C   0  0  0  0  0  0  0  0  0  0  0  0
   -0.8321    2.9202   -1.6841 C   0  0  0  0  0  0  0  0  0  0  0  0
   -0.7709    1.4905   -2.1348 C   0  0  0  0  0  0  0  0  0  0  0  0
    0.0053    0.9798   -3.1720 C   0  0  0  0  0  0  0  0  0  0  0  0
   -0.1725   -0.3588   -3.2800 N   0  0  0  0  0  0  0  0  0  0  0  0
   -1.0454   -0.6961   -2.3133 C   0  0  0  0  0  0  0  0  0  0  0  0
   -1.5384   -1.9683   -2.0275 C   0  0  0  0  0  0  0  0  0  0  0  0
   -2.4413   -2.0977   -0.9563 C   0  0  0  0  0  0  0  0  0  0  0  0
   -2.8143   -0.9686   -0.1927 C   0  0  0  0  0  0  0  0  0  0  0  0
   -2.3026    0.3031   -0.5057 C   0  0  0  0  0  0  0  0  0  0  0  0
   -1.4239    0.4033   -1.5849 C   0  0  0  0  0  0  0  0  0  0  0  0
    2.9159    0.6808    1.8593 C   0  0  0  0  0  0  0  0  0  0  0  0
    1.7980   -0.2697    1.9162 N   0  0  0  0  0  0  0  0  0  0  0  0
    1.5911   -1.3604    1.1343 C   0  0  0  0  0  0  0  0  0  0  0  0
    2.3715   -1.8235    0.0677 C   0  0  0  0  0  0  0  0  0  0  0  0
    1.9593   -2.9929   -0.5978 C   0  0  0  0  0  0  0  0  0  0  0  0
    0.7944   -3.6780   -0.1904 C   0  0  0  0  0  0  0  0  0  0  0  0
    0.0164   -3.1932    0.8745 C   0  0  0  0  0  0  0  0  0  0  0  0
    0.4370   -2.0238    1.5051 C   0  0  0  0  0  0  0  0  0  0  0  0
   -0.1090   -1.3072    2.5439 C   0  0  0  0  0  0  0  0  0  0  0  0
   -1.2696   -1.5041    3.2910 C   0  0  0  0  0  0  0  0  0  0  0  0
   -1.5533   -0.5815    4.3115 C   0  0  0  0  0  0  0  0  0  0  0  0
   -0.6799    0.5009    4.5620 C   0  0  0  0  0  0  0  0  0  0  0  0
    0.4831    0.6778    3.7897 C   0  0  0  0  0  0  0  0  0  0  0  0
    0.7448   -0.2462    2.7734 C   0  0  0  0  0  0  0  0  0  0  0  0
    4.3227    2.5890    0.8446 H   0  0  0  0  0  0  0  0  0  0  0  0
    1.6190    2.3970    1.7468 H   0  0  0  0  0  0  0  0  0  0  0  0
    3.0161    1.5626   -0.8835 H   0  0  0  0  0  0  0  0  0  0  0  0
    1.4180    0.9441   -0.4105 H   0  0  0  0  0  0  0  0  0  0  0  0
    2.0297    3.8635   -0.5746 H   0  0  0  0  0  0  0  0  0  0  0  0
   -0.2213    2.4947    0.3544 H   0  0  0  0  0  0  0  0  0  0  0  0
   -0.1013    4.2106   -0.1269 H   0  0  0  0  0  0  0  0  0  0  0  0
   -1.8799    3.1681   -1.4101 H   0  0  0  0  0  0  0  0  0  0  0  0
   -0.5365    3.5924   -2.5198 H   0  0  0  0  0  0  0  0  0  0  0  0
    0.6679    1.5543   -3.8074 H   0  0  0  0  0  0  0  0  0  0  0  0
    0.2844   -0.9979   -3.9702 H   0  0  0  0  0  0  0  0  0  0  0  0
   -1.2325   -2.8315   -2.6066 H   0  0  0  0  0  0  0  0  0  0  0  0
   -2.8382   -3.0727   -0.7028 H   0  0  0  0  0  0  0  0  0  0  0  0
   -3.4974   -1.0845    0.6383 H   0  0  0  0  0  0  0  0  0  0  0  0
   -2.5823    1.1711    0.0755 H   0  0  0  0  0  0  0  0  0  0  0  0
    3.7805    0.2393    1.3213 H   0  0  0  0  0  0  0  0  0  0  0  0
    3.2641    0.8917    2.8942 H   0  0  0  0  0  0  0  0  0  0  0  0
    3.2617   -1.3050   -0.2563 H   0  0  0  0  0  0  0  0  0  0  0  0
    2.5416   -3.3714   -1.4285 H   0  0  0  0  0  0  0  0  0  0  0  0
    0.4913   -4.5779   -0.7090 H   0  0  0  0  0  0  0  0  0  0  0  0
   -0.8835   -3.7075    1.1854 H   0  0  0  0  0  0  0  0  0  0  0  0
   -1.9302   -2.3373    3.0962 H   0  0  0  0  0  0  0  0  0  0  0  0
   -2.4444   -0.7041    4.9140 H   0  0  0  0  0  0  0  0  0  0  0  0
   -0.9066    1.2005    5.3560 H   0  0  0  0  0  0  0  0  0  0  0  0
    1.1503    1.5072    3.9877 H   0  0  0  0  0  0  0  0  0  0  0  0
  1  2  1  0
  2  3  1  0
  3  4  1  0
  4  5  1  0
  5  6  1  0
  6  7  1  0
  7  8  2  0
  8  9  1  0
  9 10  1  0
 10 11  2  0
 11 12  1  0
 12 13  2  0
 13 14  1  0
 14 15  2  0
  2 16  1  0
 16 17  1  0
 17 18  1  0
 18 19  2  0
 19 20  1  0
 20 21  2  0
 21 22  1  0
 22 23  2  0
 23 24  1  0
 24 25  2  0
 25 26  1  0
 26 27  2  0
 27 28  1  0
 28 29  2  0
 15  7  1  0
 29 17  1  0
 15 10  1  0
 23 18  1  0
 29 24  1  0
  1 30  1  0
  2 31  1  1
  3 32  1  0
  3 33  1  0
  4 34  1  0
  5 35  1  0
  5 36  1  0
  6 37  1  0
  6 38  1  0
  8 39  1  0
  9 40  1  0
 11 41  1  0
 12 42  1  0
 13 43  1  0
 14 44  1  0
 16 45  1  0
 16 46  1  0
 19 47  1  0
 20 48  1  0
 21 49  1  0
 22 50  1  0
 25 51  1  0
 26 52  1  0
 27 53  1  0
 28 54  1  0
M  END
>  <UniqueID>  (72) 
71

>  <SMILES>  (72) 
O[C@@H](CNCCc1c[nH]c2ccccc12)Cn1c2ccccc2c2ccccc21

>  <Energy>  (72) 
124.00002263433535

>  <Genealogy>  (72) 
O[C@@H](CNCCc1c[nH]c2ccccc12)Cn1c2ccccc2c2ccccc21 (3D coordinates assigned)
O[C@@H](CNCCc1c[nH]c2ccccc12)Cn1c2ccccc2c2ccccc21 (optimized conformer: 124.00002263433535 kcal/mol)

$$$$
untitled_line_72
     RDKit          3D

 31 32  0  0  0  0  0  0  0  0999 V2000
   -5.8671    0.3763    1.1158 C   0  0  0  0  0  0  0  0  0  0  0  0
   -4.7578    0.2930    0.1141 C   0  0  0  0  0  0  0  0  0  0  0  0
   -5.0102    0.4939   -1.1042 O   0  0  0  0  0  0  0  0  0  0  0  0
   -3.3806   -0.0205    0.5407 C   0  0  0  0  0  0  0  0  0  0  0  0
   -3.1384   -0.2200    1.7626 O   0  0  0  0  0  0  0  0  0  0  0  0
   -2.3181   -0.0998   -0.4209 N   0  0  0  0  0  0  0  0  0  0  0  0
   -0.9472   -0.4082   -0.0141 C   0  0  0  0  0  0  0  0  0  0  0  0
   -0.0098   -0.4300   -1.2241 C   0  0  0  0  0  0  0  0  0  0  0  0
    1.3927   -0.7470   -0.7993 C   0  0  0  0  0  0  0  0  0  0  0  0
    1.9834   -2.0065   -0.7621 C   0  0  0  0  0  0  0  0  0  0  0  0
    3.2354   -1.9256   -0.2563 N   0  0  0  0  0  0  0  0  0  0  0  0
    3.4345   -0.6289    0.0379 C   0  0  0  0  0  0  0  0  0  0  0  0
    4.5731   -0.0554    0.6026 C   0  0  0  0  0  0  0  0  0  0  0  0
    4.5589    1.3301    0.8475 C   0  0  0  0  0  0  0  0  0  0  0  0
    3.4188    2.1016    0.5299 C   0  0  0  0  0  0  0  0  0  0  0  0
    2.2830    1.4954   -0.0374 C   0  0  0  0  0  0  0  0  0  0  0  0
    2.3294    0.1212   -0.2739 C   0  0  0  0  0  0  0  0  0  0  0  0
   -5.9744   -0.5977    1.6376 H   0  0  0  0  0  0  0  0  0  0  0  0
   -5.6411    1.1687    1.8598 H   0  0  0  0  0  0  0  0  0  0  0  0
   -6.8282    0.6206    0.6151 H   0  0  0  0  0  0  0  0  0  0  0  0
   -2.5319    0.0678   -1.4305 H   0  0  0  0  0  0  0  0  0  0  0  0
   -0.6001    0.3617    0.7096 H   0  0  0  0  0  0  0  0  0  0  0  0
   -0.9292   -1.4020    0.4849 H   0  0  0  0  0  0  0  0  0  0  0  0
   -0.3567   -1.1968   -1.9504 H   0  0  0  0  0  0  0  0  0  0  0  0
   -0.0276    0.5584   -1.7318 H   0  0  0  0  0  0  0  0  0  0  0  0
    1.5179   -2.9314   -1.0771 H   0  0  0  0  0  0  0  0  0  0  0  0
    3.9030   -2.7154   -0.1111 H   0  0  0  0  0  0  0  0  0  0  0  0
    5.4394   -0.6558    0.8482 H   0  0  0  0  0  0  0  0  0  0  0  0
    5.4261    1.8071    1.2851 H   0  0  0  0  0  0  0  0  0  0  0  0
    3.4182    3.1659    0.7257 H   0  0  0  0  0  0  0  0  0  0  0  0
    1.4047    2.0796   -0.2792 H   0  0  0  0  0  0  0  0  0  0  0  0
  1  2  1  0
  2  3  2  0
  2  4  1  0
  4  5  2  0
  4  6  1  0
  6  7  1  0
  7  8  1  0
  8  9  1  0
  9 10  2  0
 10 11  1  0
 11 12  1  0
 12 13  2  0
 13 14  1  0
 14 15  2  0
 15 16  1  0
 16 17  2  0
 17  9  1  0
 17 12  1  0
  1 18  1  0
  1 19  1  0
  1 20  1  0
  6 21  1  0
  7 22  1  0
  7 23  1  0
  8 24  1  0
  8 25  1  0
 10 26  1  0
 11 27  1  0
 13 28  1  0
 14 29  1  0
 15 30  1  0
 16 31  1  0
M  END
>  <UniqueID>  (73) 
72

>  <SMILES>  (73) 
CC(=O)C(=O)NCCc1c[nH]c2ccccc12

>  <Energy>  (73) 
56.399692875546016

>  <Genealogy>  (73) 
CC(=O)C(=O)NCCc1c[nH]c2ccccc12 (3D coordinates assigned)
CC(=O)C(=O)NCCc1c[nH]c2ccccc12 (optimized conformer: 56.399692875546016 kcal/mol)

$$$$
untitled_line_73
     RDKit          3D

 38 40  0  0  0  0  0  0  0  0999 V2000
   -1.9240    5.7215   -1.0043 Cl  0  0  0  0  0  0  0  0  0  0  0  0
   -0.9677    4.3529   -1.5424 C   0  0  0  0  0  0  0  0  0  0  0  0
    0.2303    4.0406   -0.8961 C   0  0  0  0  0  0  0  0  0  0  0  0
    0.9921    2.9500   -1.3215 C   0  0  0  0  0  0  0  0  0  0  0  0
    0.5654    2.1575   -2.4022 C   0  0  0  0  0  0  0  0  0  0  0  0
    1.3932    0.9608   -2.8122 C   0  0  0  0  0  0  0  0  0  0  0  0
    0.8496   -0.3493   -2.2178 C   0  0  0  0  0  0  0  0  0  0  0  0
    0.9687   -0.3720   -0.7510 N   0  0  0  0  0  4  0  0  0  0  0  0
    0.5149   -1.6627   -0.2146 C   0  0  0  0  0  0  0  0  0  0  0  0
    0.5969   -1.6648    1.2843 C   0  0  0  0  0  0  0  0  0  0  0  0
    1.6371   -2.1688    2.0589 C   0  0  0  0  0  0  0  0  0  0  0  0
    1.4111   -1.9221    3.3697 N   0  0  0  0  0  0  0  0  0  0  0  0
    0.2452   -1.2547    3.4268 C   0  0  0  0  0  0  0  0  0  0  0  0
   -0.3920   -0.7619    4.5648 C   0  0  0  0  0  0  0  0  0  0  0  0
   -1.6018   -0.0645    4.3909 C   0  0  0  0  0  0  0  0  0  0  0  0
   -2.1389    0.1260    3.0982 C   0  0  0  0  0  0  0  0  0  0  0  0
   -1.4727   -0.3809    1.9676 C   0  0  0  0  0  0  0  0  0  0  0  0
   -0.2790   -1.0732    2.1727 C   0  0  0  0  0  0  0  0  0  0  0  0
   -0.6498    2.4760   -3.0496 C   0  0  0  0  0  0  0  0  0  0  0  0
   -1.2573    1.5309   -4.4055 Cl  0  0  0  0  0  0  0  0  0  0  0  0
   -1.4053    3.5726   -2.6161 C   0  0  0  0  0  0  0  0  0  0  0  0
    0.5709    4.6400   -0.0615 H   0  0  0  0  0  0  0  0  0  0  0  0
    1.9129    2.7173   -0.8008 H   0  0  0  0  0  0  0  0  0  0  0  0
    2.4522    1.0953   -2.5005 H   0  0  0  0  0  0  0  0  0  0  0  0
    1.4089    0.8790   -3.9200 H   0  0  0  0  0  0  0  0  0  0  0  0
    1.4324   -1.1907   -2.6560 H   0  0  0  0  0  0  0  0  0  0  0  0
   -0.2140   -0.4807   -2.5178 H   0  0  0  0  0  0  0  0  0  0  0  0
    1.9690   -0.2197   -0.4797 H   0  0  0  0  0  0  0  0  0  0  0  0
    0.3772    0.3893   -0.3435 H   0  0  0  0  0  0  0  0  0  0  0  0
    1.1462   -2.4882   -0.6134 H   0  0  0  0  0  0  0  0  0  0  0  0
   -0.5385   -1.8584   -0.5157 H   0  0  0  0  0  0  0  0  0  0  0  0
    2.5163   -2.6753    1.6825 H   0  0  0  0  0  0  0  0  0  0  0  0
    2.0287   -2.1831    4.1703 H   0  0  0  0  0  0  0  0  0  0  0  0
    0.0310   -0.9065    5.5505 H   0  0  0  0  0  0  0  0  0  0  0  0
   -2.1221    0.3316    5.2531 H   0  0  0  0  0  0  0  0  0  0  0  0
   -3.0681    0.6673    2.9763 H   0  0  0  0  0  0  0  0  0  0  0  0
   -1.8759   -0.2346    0.9738 H   0  0  0  0  0  0  0  0  0  0  0  0
   -2.3356    3.8173   -3.1133 H   0  0  0  0  0  0  0  0  0  0  0  0
  1  2  1  0
  2  3  2  0
  3  4  1  0
  4  5  2  0
  5  6  1  0
  6  7  1  0
  7  8  1  0
  8  9  1  0
  9 10  1  0
 10 11  2  0
 11 12  1  0
 12 13  1  0
 13 14  2  0
 14 15  1  0
 15 16  2  0
 16 17  1  0
 17 18  2  0
  5 19  1  0
 19 20  1  0
 19 21  2  0
 21  2  1  0
 18 10  1  0
 18 13  1  0
  3 22  1  0
  4 23  1  0
  6 24  1  0
  6 25  1  0
  7 26  1  0
  7 27  1  0
  8 28  1  0
  8 29  1  0
  9 30  1  0
  9 31  1  0
 11 32  1  0
 12 33  1  0
 14 34  1  0
 15 35  1  0
 16 36  1  0
 17 37  1  0
 21 38  1  0
M  CHG  1   8   1
M  END
>  <UniqueID>  (74) 
73

>  <SMILES>  (74) 
Clc1ccc(CC[NH2+]Cc2c[nH]c3ccccc23)c(Cl)c1

>  <Energy>  (74) 
69.64867619128727

>  <Genealogy>  (74) 
Clc1ccc(CC[NH2+]Cc2c[nH]c3ccccc23)c(Cl)c1 (protonated)
Clc1ccc(CC[NH2+]Cc2c[nH]c3ccccc23)c(Cl)c1 (3D coordinates assigned)
Clc1ccc(CC[NH2+]Cc2c[nH]c3ccccc23)c(Cl)c1 (optimized conformer: 69.64867619128727 kcal/mol)

$$$$
untitled_line_74
     RDKit          3D

 54 58  0  0  0  0  0  0  0  0999 V2000
   -2.1993    4.5493    0.8953 O   0  0  0  0  0  0  0  0  0  0  0  0
   -1.6198    3.3706    1.3991 C   0  0  2  0  0  0  0  0  0  0  0  0
   -0.5128    2.8571    0.4554 C   0  0  0  0  0  0  0  0  0  0  0  0
   -1.0469    2.4281   -0.8474 N   0  0  0  0  0  0  0  0  0  0  0  0
    0.0246    1.9018   -1.7090 C   0  0  0  0  0  0  0  0  0  0  0  0
    0.1908    0.3945   -1.5046 C   0  0  0  0  0  0  0  0  0  0  0  0
    1.3446   -0.1247   -2.3069 C   0  0  0  0  0  0  0  0  0  0  0  0
    1.2930   -0.6527   -3.5932 C   0  0  0  0  0  0  0  0  0  0  0  0
    2.5374   -0.9579   -4.0274 N   0  0  0  0  0  0  0  0  0  0  0  0
    3.3732   -0.6156   -3.0312 C   0  0  0  0  0  0  0  0  0  0  0  0
    4.7631   -0.7255   -3.0180 C   0  0  0  0  0  0  0  0  0  0  0  0
    5.4464   -0.2855   -1.8692 C   0  0  0  0  0  0  0  0  0  0  0  0
    4.7338    0.2517   -0.7738 C   0  0  0  0  0  0  0  0  0  0  0  0
    3.3312    0.3522   -0.8161 C   0  0  0  0  0  0  0  0  0  0  0  0
    2.6821   -0.0976   -1.9661 C   0  0  0  0  0  0  0  0  0  0  0  0
   -2.7010    2.3156    1.7281 C   0  0  0  0  0  0  0  0  0  0  0  0
   -2.1242    1.1421    2.3975 N   0  0  0  0  0  0  0  0  0  0  0  0
   -1.6539    1.0743    3.6701 C   0  0  0  0  0  0  0  0  0  0  0  0
   -1.6689    2.0746    4.6482 C   0  0  0  0  0  0  0  0  0  0  0  0
   -1.1265    1.7755    5.9113 C   0  0  0  0  0  0  0  0  0  0  0  0
   -0.5906    0.4971    6.1787 C   0  0  0  0  0  0  0  0  0  0  0  0
   -0.5946   -0.4994    5.1876 C   0  0  0  0  0  0  0  0  0  0  0  0
   -1.1358   -0.1759    3.9447 C   0  0  0  0  0  0  0  0  0  0  0  0
   -1.2986   -0.9225    2.8013 C   0  0  0  0  0  0  0  0  0  0  0  0
   -0.9733   -2.2468    2.5140 C   0  0  0  0  0  0  0  0  0  0  0  0
   -1.2919   -2.7363    1.2363 C   0  0  0  0  0  0  0  0  0  0  0  0
   -1.9268   -1.9049    0.2894 C   0  0  0  0  0  0  0  0  0  0  0  0
   -2.2452   -0.5714    0.6053 C   0  0  0  0  0  0  0  0  0  0  0  0
   -1.9095   -0.0954    1.8778 C   0  0  0  0  0  0  0  0  0  0  0  0
   -2.8315    4.2989    0.1726 H   0  0  0  0  0  0  0  0  0  0  0  0
   -1.1177    3.6470    2.3498 H   0  0  0  0  0  0  0  0  0  0  0  0
    0.0136    2.0131    0.9513 H   0  0  0  0  0  0  0  0  0  0  0  0
    0.2289    3.6757    0.3126 H   0  0  0  0  0  0  0  0  0  0  0  0
   -1.4304    3.2753   -1.3273 H   0  0  0  0  0  0  0  0  0  0  0  0
    0.9904    2.4284   -1.5289 H   0  0  0  0  0  0  0  0  0  0  0  0
   -0.2443    2.0759   -2.7756 H   0  0  0  0  0  0  0  0  0  0  0  0
   -0.7385   -0.1237   -1.8235 H   0  0  0  0  0  0  0  0  0  0  0  0
    0.3659    0.1636   -0.4333 H   0  0  0  0  0  0  0  0  0  0  0  0
    0.3958   -0.7960   -4.1812 H   0  0  0  0  0  0  0  0  0  0  0  0
    2.7937   -1.3641   -4.9546 H   0  0  0  0  0  0  0  0  0  0  0  0
    5.3007   -1.1331   -3.8642 H   0  0  0  0  0  0  0  0  0  0  0  0
    6.5254   -0.3564   -1.8259 H   0  0  0  0  0  0  0  0  0  0  0  0
    5.2703    0.5897    0.1031 H   0  0  0  0  0  0  0  0  0  0  0  0
    2.7789    0.7667    0.0174 H   0  0  0  0  0  0  0  0  0  0  0  0
   -3.4604    2.7742    2.3975 H   0  0  0  0  0  0  0  0  0  0  0  0
   -3.2389    2.0199    0.8049 H   0  0  0  0  0  0  0  0  0  0  0  0
   -2.0914    3.0511    4.4546 H   0  0  0  0  0  0  0  0  0  0  0  0
   -1.1239    2.5310    6.6862 H   0  0  0  0  0  0  0  0  0  0  0  0
   -0.1785    0.2808    7.1557 H   0  0  0  0  0  0  0  0  0  0  0  0
   -0.1929   -1.4841    5.3880 H   0  0  0  0  0  0  0  0  0  0  0  0
   -0.4940   -2.8811    3.2482 H   0  0  0  0  0  0  0  0  0  0  0  0
   -1.0524   -3.7595    0.9781 H   0  0  0  0  0  0  0  0  0  0  0  0
   -2.1686   -2.2956   -0.6904 H   0  0  0  0  0  0  0  0  0  0  0  0
   -2.7294    0.0536   -0.1309 H   0  0  0  0  0  0  0  0  0  0  0  0
  1  2  1  0
  2  3  1  0
  3  4  1  0
  4  5  1  0
  5  6  1  0
  6  7  1  0
  7  8  2  0
  8  9  1  0
  9 10  1  0
 10 11  2  0
 11 12  1  0
 12 13  2  0
 13 14  1  0
 14 15  2  0
  2 16  1  0
 16 17  1  0
 17 18  1  0
 18 19  2  0
 19 20  1  0
 20 21  2  0
 21 22  1  0
 22 23  2  0
 23 24  1  0
 24 25  2  0
 25 26  1  0
 26 27  2  0
 27 28  1  0
 28 29  2  0
 15  7  1  0
 29 17  1  0
 15 10  1  0
 23 18  1  0
 29 24  1  0
  1 30  1  0
  2 31  1  1
  3 32  1  0
  3 33  1  0
  4 34  1  0
  5 35  1  0
  5 36  1  0
  6 37  1  0
  6 38  1  0
  8 39  1  0
  9 40  1  0
 11 41  1  0
 12 42  1  0
 13 43  1  0
 14 44  1  0
 16 45  1  0
 16 46  1  0
 19 47  1  0
 20 48  1  0
 21 49  1  0
 22 50  1  0
 25 51  1  0
 26 52  1  0
 27 53  1  0
 28 54  1  0
M  END
>  <UniqueID>  (75) 
74

>  <SMILES>  (75) 
O[C@H](CNCCc1c[nH]c2ccccc12)Cn1c2ccccc2c2ccccc21

>  <Energy>  (75) 
127.48113614876618

>  <Genealogy>  (75) 
O[C@H](CNCCc1c[nH]c2ccccc12)Cn1c2ccccc2c2ccccc21 (3D coordinates assigned)
O[C@H](CNCCc1c[nH]c2ccccc12)Cn1c2ccccc2c2ccccc21 (optimized conformer: 127.48113614876618 kcal/mol)

$$$$
untitled_line_75
     RDKit          3D

 38 40  0  0  0  0  0  0  0  0999 V2000
   -2.1064   -1.4108   -0.3476 F   0  0  0  0  0  0  0  0  0  0  0  0
   -2.0706   -0.1910    0.2464 C   0  0  0  0  0  0  0  0  0  0  0  0
   -2.6406    0.9056   -0.4090 C   0  0  0  0  0  0  0  0  0  0  0  0
   -2.6117    2.1706    0.1834 C   0  0  0  0  0  0  0  0  0  0  0  0
   -2.0119    2.3436    1.4331 C   0  0  0  0  0  0  0  0  0  0  0  0
   -1.4406    1.2520    2.0935 C   0  0  0  0  0  0  0  0  0  0  0  0
   -1.4678   -0.0254    1.5076 C   0  0  0  0  0  0  0  0  0  0  0  0
   -0.8213   -1.1971    2.2114 C   0  0  0  0  0  0  0  0  0  0  0  0
    0.4888   -1.5330    1.6279 N   0  0  0  0  0  4  0  0  0  0  0  0
    1.5117   -0.5228    1.9536 C   0  0  0  0  0  0  0  0  0  0  0  0
    2.8944   -0.9231    1.4183 C   0  0  0  0  0  0  0  0  0  0  0  0
    2.9394   -0.8845   -0.0821 C   0  0  0  0  0  0  0  0  0  0  0  0
    3.0761    0.2521   -0.8736 C   0  0  0  0  0  0  0  0  0  0  0  0
    2.9966   -0.0725   -2.1841 N   0  0  0  0  0  0  0  0  0  0  0  0
    2.7998   -1.4016   -2.2267 C   0  0  0  0  0  0  0  0  0  0  0  0
    2.6313   -2.1942   -3.3612 C   0  0  0  0  0  0  0  0  0  0  0  0
    2.4111   -3.5711   -3.1748 C   0  0  0  0  0  0  0  0  0  0  0  0
    2.3607   -4.1180   -1.8734 C   0  0  0  0  0  0  0  0  0  0  0  0
    2.5322   -3.2939   -0.7464 C   0  0  0  0  0  0  0  0  0  0  0  0
    2.7549   -1.9333   -0.9629 C   0  0  0  0  0  0  0  0  0  0  0  0
   -3.1043    0.7755   -1.3784 H   0  0  0  0  0  0  0  0  0  0  0  0
   -3.0526    3.0172   -0.3268 H   0  0  0  0  0  0  0  0  0  0  0  0
   -1.9871    3.3248    1.8894 H   0  0  0  0  0  0  0  0  0  0  0  0
   -0.9717    1.4036    3.0578 H   0  0  0  0  0  0  0  0  0  0  0  0
   -0.7208   -0.9965    3.3021 H   0  0  0  0  0  0  0  0  0  0  0  0
   -1.4954   -2.0782    2.1250 H   0  0  0  0  0  0  0  0  0  0  0  0
    0.3929   -1.6294    0.5906 H   0  0  0  0  0  0  0  0  0  0  0  0
    0.7890   -2.4572    2.0177 H   0  0  0  0  0  0  0  0  0  0  0  0
    1.2334    0.4663    1.5268 H   0  0  0  0  0  0  0  0  0  0  0  0
    1.5902   -0.4089    3.0580 H   0  0  0  0  0  0  0  0  0  0  0  0
    3.1707   -1.9333    1.7882 H   0  0  0  0  0  0  0  0  0  0  0  0
    3.6505   -0.2106    1.8128 H   0  0  0  0  0  0  0  0  0  0  0  0
    3.2109    1.2620   -0.5087 H   0  0  0  0  0  0  0  0  0  0  0  0
    3.0587    0.5826   -2.9950 H   0  0  0  0  0  0  0  0  0  0  0  0
    2.6644   -1.7648   -4.3542 H   0  0  0  0  0  0  0  0  0  0  0  0
    2.2757   -4.2147   -4.0342 H   0  0  0  0  0  0  0  0  0  0  0  0
    2.1865   -5.1780   -1.7421 H   0  0  0  0  0  0  0  0  0  0  0  0
    2.4878   -3.7072    0.2524 H   0  0  0  0  0  0  0  0  0  0  0  0
  1  2  1  0
  2  3  2  0
  3  4  1  0
  4  5  2  0
  5  6  1  0
  6  7  2  0
  7  8  1  0
  8  9  1  0
  9 10  1  0
 10 11  1  0
 11 12  1  0
 12 13  2  0
 13 14  1  0
 14 15  1  0
 15 16  2  0
 16 17  1  0
 17 18  2  0
 18 19  1  0
 19 20  2  0
  7  2  1  0
 20 12  1  0
 20 15  1  0
  3 21  1  0
  4 22  1  0
  5 23  1  0
  6 24  1  0
  8 25  1  0
  8 26  1  0
  9 27  1  0
  9 28  1  0
 10 29  1  0
 10 30  1  0
 11 31  1  0
 11 32  1  0
 13 33  1  0
 14 34  1  0
 16 35  1  0
 17 36  1  0
 18 37  1  0
 19 38  1  0
M  CHG  1   9   1
M  END
>  <UniqueID>  (76) 
75

>  <SMILES>  (76) 
Fc1ccccc1C[NH2+]CCc1c[nH]c2ccccc12

>  <Energy>  (76) 
69.61727021776976

>  <Genealogy>  (76) 
Fc1ccccc1C[NH2+]CCc1c[nH]c2ccccc12 (protonated)
Fc1ccccc1C[NH2+]CCc1c[nH]c2ccccc12 (3D coordinates assigned)
Fc1ccccc1C[NH2+]CCc1c[nH]c2ccccc12 (optimized conformer: 69.61727021776976 kcal/mol)

$$$$
untitled_line_76
     RDKit          3D

 46 48  0  0  0  0  0  0  0  0999 V2000
    4.1701    2.1979   -3.7484 C   0  0  0  0  0  0  0  0  0  0  0  0
    3.9915    1.7706   -2.4016 O   0  0  0  0  0  0  0  0  0  0  0  0
    3.2049    0.6794   -1.9999 C   0  0  0  0  0  0  0  0  0  0  0  0
    2.5172   -0.1010   -2.9507 C   0  0  0  0  0  0  0  0  0  0  0  0
    1.7367   -1.1833   -2.5530 C   0  0  0  0  0  0  0  0  0  0  0  0
    1.6271   -1.5087   -1.2053 C   0  0  0  0  0  0  0  0  0  0  0  0
    2.3013   -0.7543   -0.2345 C   0  0  0  0  0  0  0  0  0  0  0  0
    2.1386   -1.1180    1.2275 C   0  0  0  0  0  0  0  0  0  0  0  0
    1.1921   -0.2242    1.9179 N   0  0  0  0  0  4  0  0  0  0  0  0
   -0.1965   -0.4508    1.4844 C   0  0  0  0  0  0  0  0  0  0  0  0
   -1.1660    0.4239    2.2876 C   0  0  0  0  0  0  0  0  0  0  0  0
   -2.5763    0.2048    1.8286 C   0  0  0  0  0  0  0  0  0  0  0  0
   -3.2558    0.9367    0.8593 C   0  0  0  0  0  0  0  0  0  0  0  0
   -4.4827    0.4093    0.6439 N   0  0  0  0  0  0  0  0  0  0  0  0
   -4.5776   -0.6563    1.4585 C   0  0  0  0  0  0  0  0  0  0  0  0
   -5.6528   -1.5358    1.5779 C   0  0  0  0  0  0  0  0  0  0  0  0
   -5.5292   -2.6063    2.4827 C   0  0  0  0  0  0  0  0  0  0  0  0
   -4.3457   -2.7743    3.2356 C   0  0  0  0  0  0  0  0  0  0  0  0
   -3.2756   -1.8723    3.0926 C   0  0  0  0  0  0  0  0  0  0  0  0
   -3.4306   -0.8173    2.1930 C   0  0  0  0  0  0  0  0  0  0  0  0
    3.0946    0.3497   -0.6214 C   0  0  0  0  0  0  0  0  0  0  0  0
    3.7418    1.0706    0.4023 O   0  0  0  0  0  0  0  0  0  0  0  0
    4.5605    2.2240    0.2457 C   0  0  0  0  0  0  0  0  0  0  0  0
    4.6411    1.3897   -4.3468 H   0  0  0  0  0  0  0  0  0  0  0  0
    4.8383    3.0831   -3.7610 H   0  0  0  0  0  0  0  0  0  0  0  0
    3.1929    2.4851   -4.1910 H   0  0  0  0  0  0  0  0  0  0  0  0
    2.5783    0.1211   -4.0070 H   0  0  0  0  0  0  0  0  0  0  0  0
    1.2115   -1.7718   -3.2944 H   0  0  0  0  0  0  0  0  0  0  0  0
    1.0079   -2.3490   -0.9160 H   0  0  0  0  0  0  0  0  0  0  0  0
    1.8174   -2.1786    1.3376 H   0  0  0  0  0  0  0  0  0  0  0  0
    3.1311   -1.0548    1.7262 H   0  0  0  0  0  0  0  0  0  0  0  0
    1.2618   -0.4146    2.9454 H   0  0  0  0  0  0  0  0  0  0  0  0
    1.4571    0.7749    1.7509 H   0  0  0  0  0  0  0  0  0  0  0  0
   -0.4707   -1.5208    1.6273 H   0  0  0  0  0  0  0  0  0  0  0  0
   -0.3048   -0.1981    0.4061 H   0  0  0  0  0  0  0  0  0  0  0  0
   -1.0887    0.1810    3.3691 H   0  0  0  0  0  0  0  0  0  0  0  0
   -0.8999    1.4952    2.1569 H   0  0  0  0  0  0  0  0  0  0  0  0
   -2.8681    1.7990    0.3326 H   0  0  0  0  0  0  0  0  0  0  0  0
   -5.2012    0.7534   -0.0312 H   0  0  0  0  0  0  0  0  0  0  0  0
   -6.5528   -1.4029    0.9916 H   0  0  0  0  0  0  0  0  0  0  0  0
   -6.3449   -3.3078    2.5995 H   0  0  0  0  0  0  0  0  0  0  0  0
   -4.2605   -3.6038    3.9254 H   0  0  0  0  0  0  0  0  0  0  0  0
   -2.3641   -1.9977    3.6624 H   0  0  0  0  0  0  0  0  0  0  0  0
    5.4573    1.9801   -0.3616 H   0  0  0  0  0  0  0  0  0  0  0  0
    4.9024    2.5584    1.2464 H   0  0  0  0  0  0  0  0  0  0  0  0
    3.9782    3.0497   -0.2147 H   0  0  0  0  0  0  0  0  0  0  0  0
  1  2  1  0
  2  3  1  0
  3  4  2  0
  4  5  1  0
  5  6  2  0
  6  7  1  0
  7  8  1  0
  8  9  1  0
  9 10  1  0
 10 11  1  0
 11 12  1  0
 12 13  2  0
 13 14  1  0
 14 15  1  0
 15 16  2  0
 16 17  1  0
 17 18  2  0
 18 19  1  0
 19 20  2  0
  7 21  2  0
 21 22  1  0
 22 23  1  0
 21  3  1  0
 20 12  1  0
 20 15  1  0
  1 24  1  0
  1 25  1  0
  1 26  1  0
  4 27  1  0
  5 28  1  0
  6 29  1  0
  8 30  1  0
  8 31  1  0
  9 32  1  0
  9 33  1  0
 10 34  1  0
 10 35  1  0
 11 36  1  0
 11 37  1  0
 13 38  1  0
 14 39  1  0
 16 40  1  0
 17 41  1  0
 18 42  1  0
 19 43  1  0
 23 44  1  0
 23 45  1  0
 23 46  1  0
M  CHG  1   9   1
M  END
>  <UniqueID>  (77) 
76

>  <SMILES>  (77) 
COc1cccc(C[NH2+]CCc2c[nH]c3ccccc23)c1OC

>  <Energy>  (77) 
79.48422953897315

>  <Genealogy>  (77) 
COc1cccc(C[NH2+]CCc2c[nH]c3ccccc23)c1OC (protonated)
COc1cccc(C[NH2+]CCc2c[nH]c3ccccc23)c1OC (3D coordinates assigned)
COc1cccc(C[NH2+]CCc2c[nH]c3ccccc23)c1OC (optimized conformer: 79.48422953897315 kcal/mol)

$$$$
untitled_line_77
     RDKit          3D

 38 40  0  0  0  0  0  0  0  0999 V2000
   -4.1490   -0.5943   -2.0504 F   0  0  0  0  0  0  0  0  0  0  0  0
   -4.1316   -0.1657   -0.7627 C   0  0  0  0  0  0  0  0  0  0  0  0
   -5.1790   -0.5260    0.0920 C   0  0  0  0  0  0  0  0  0  0  0  0
   -5.1725   -0.1088    1.4255 C   0  0  0  0  0  0  0  0  0  0  0  0
   -4.1160    0.6661    1.9103 C   0  0  0  0  0  0  0  0  0  0  0  0
   -3.0665    1.0297    1.0614 C   0  0  0  0  0  0  0  0  0  0  0  0
   -3.0724    0.6290   -0.2855 C   0  0  0  0  0  0  0  0  0  0  0  0
   -1.9163    0.9924   -1.1840 C   0  0  0  0  0  0  0  0  0  0  0  0
   -0.8881   -0.0577   -1.1480 N   0  0  0  0  0  4  0  0  0  0  0  0
    0.2543    0.3055   -2.0026 C   0  0  0  0  0  0  0  0  0  0  0  0
    1.3034   -0.8155   -2.0539 C   0  0  0  0  0  0  0  0  0  0  0  0
    1.9554   -1.0316   -0.7192 C   0  0  0  0  0  0  0  0  0  0  0  0
    1.6436   -2.0241    0.2055 C   0  0  0  0  0  0  0  0  0  0  0  0
    2.3881   -1.8765    1.3251 N   0  0  0  0  0  0  0  0  0  0  0  0
    3.1601   -0.7954    1.1183 C   0  0  0  0  0  0  0  0  0  0  0  0
    4.0862   -0.2373    1.9985 C   0  0  0  0  0  0  0  0  0  0  0  0
    4.7792    0.9139    1.5809 C   0  0  0  0  0  0  0  0  0  0  0  0
    4.5319    1.4763    0.3087 C   0  0  0  0  0  0  0  0  0  0  0  0
    3.5901    0.8924   -0.5581 C   0  0  0  0  0  0  0  0  0  0  0  0
    2.9217   -0.2500   -0.1173 C   0  0  0  0  0  0  0  0  0  0  0  0
   -5.9950   -1.1333   -0.2782 H   0  0  0  0  0  0  0  0  0  0  0  0
   -5.9835   -0.3907    2.0845 H   0  0  0  0  0  0  0  0  0  0  0  0
   -4.1082    0.9820    2.9455 H   0  0  0  0  0  0  0  0  0  0  0  0
   -2.2488    1.6217    1.4537 H   0  0  0  0  0  0  0  0  0  0  0  0
   -1.4828    1.9641   -0.8546 H   0  0  0  0  0  0  0  0  0  0  0  0
   -2.2843    1.1360   -2.2248 H   0  0  0  0  0  0  0  0  0  0  0  0
   -0.5608   -0.1755   -0.1605 H   0  0  0  0  0  0  0  0  0  0  0  0
   -1.3031   -0.9578   -1.4870 H   0  0  0  0  0  0  0  0  0  0  0  0
    0.7306    1.2410   -1.6311 H   0  0  0  0  0  0  0  0  0  0  0  0
   -0.0966    0.4917   -3.0426 H   0  0  0  0  0  0  0  0  0  0  0  0
    0.8298   -1.7597   -2.3997 H   0  0  0  0  0  0  0  0  0  0  0  0
    2.0855   -0.5459   -2.7956 H   0  0  0  0  0  0  0  0  0  0  0  0
    0.9032   -2.8019    0.0706 H   0  0  0  0  0  0  0  0  0  0  0  0
    2.3570   -2.4756    2.1798 H   0  0  0  0  0  0  0  0  0  0  0  0
    4.2657   -0.6729    2.9729 H   0  0  0  0  0  0  0  0  0  0  0  0
    5.5050    1.3725    2.2397 H   0  0  0  0  0  0  0  0  0  0  0  0
    5.0696    2.3629   -0.0010 H   0  0  0  0  0  0  0  0  0  0  0  0
    3.3942    1.3188   -1.5332 H   0  0  0  0  0  0  0  0  0  0  0  0
  1  2  1  0
  2  3  2  0
  3  4  1  0
  4  5  2  0
  5  6  1  0
  6  7  2  0
  7  8  1  0
  8  9  1  0
  9 10  1  0
 10 11  1  0
 11 12  1  0
 12 13  2  0
 13 14  1  0
 14 15  1  0
 15 16  2  0
 16 17  1  0
 17 18  2  0
 18 19  1  0
 19 20  2  0
  7  2  1  0
 20 12  1  0
 20 15  1  0
  3 21  1  0
  4 22  1  0
  5 23  1  0
  6 24  1  0
  8 25  1  0
  8 26  1  0
  9 27  1  0
  9 28  1  0
 10 29  1  0
 10 30  1  0
 11 31  1  0
 11 32  1  0
 13 33  1  0
 14 34  1  0
 16 35  1  0
 17 36  1  0
 18 37  1  0
 19 38  1  0
M  CHG  1   9   1
M  END
>  <UniqueID>  (78) 
77

>  <SMILES>  (78) 
Fc1ccccc1C[NH2+]CCc1c[nH]c2ccccc12

>  <Energy>  (78) 
69.05184387064408

>  <Genealogy>  (78) 
Fc1ccccc1C[NH2+]CCc1c[nH]c2ccccc12 (protonated)
Fc1ccccc1C[NH2+]CCc1c[nH]c2ccccc12 (3D coordinates assigned)
Fc1ccccc1C[NH2+]CCc1c[nH]c2ccccc12 (optimized conformer: 69.05184387064408 kcal/mol)

$$$$
untitled_line_78
     RDKit          3D

 50 52  0  0  0  0  0  0  0  0999 V2000
    6.7095   -1.6449   -1.6687 C   0  0  0  0  0  0  0  0  0  0  0  0
    6.0329   -0.5499   -1.0583 O   0  0  0  0  0  0  0  0  0  0  0  0
    4.7403   -0.6157   -0.5130 C   0  0  0  0  0  0  0  0  0  0  0  0
    3.9930   -1.8044   -0.5203 C   0  0  0  0  0  0  0  0  0  0  0  0
    2.7009   -1.8283   -0.0033 C   0  0  0  0  0  0  0  0  0  0  0  0
    2.1292   -0.6745    0.5496 C   0  0  0  0  0  0  0  0  0  0  0  0
    0.6890   -0.7257    1.0222 C   0  0  0  0  0  0  0  0  0  0  0  0
   -0.2252   -1.0027   -0.1001 N   0  0  0  0  0  4  0  0  0  0  0  0
   -1.6266   -0.8912    0.3322 C   0  0  0  0  0  0  0  0  0  0  0  0
   -2.5800   -1.2855   -0.8022 C   0  0  0  0  0  0  0  0  0  0  0  0
   -4.0041   -1.0527   -0.3944 C   0  0  0  0  0  0  0  0  0  0  0  0
   -4.7981   -1.9073    0.3644 C   0  0  0  0  0  0  0  0  0  0  0  0
   -5.9954   -1.3350    0.6244 N   0  0  0  0  0  0  0  0  0  0  0  0
   -5.9583   -0.1202    0.0476 C   0  0  0  0  0  0  0  0  0  0  0  0
   -6.9575    0.8524    0.0608 C   0  0  0  0  0  0  0  0  0  0  0  0
   -6.7004    2.0689   -0.5985 C   0  0  0  0  0  0  0  0  0  0  0  0
   -5.4617    2.2866   -1.2421 C   0  0  0  0  0  0  0  0  0  0  0  0
   -4.4685    1.2905   -1.2326 C   0  0  0  0  0  0  0  0  0  0  0  0
   -4.7565    0.0903   -0.5792 C   0  0  0  0  0  0  0  0  0  0  0  0
    2.9018    0.5084    0.6332 C   0  0  0  0  0  0  0  0  0  0  0  0
    2.3951    1.6227    1.3065 O   0  0  0  0  0  0  0  0  0  0  0  0
    2.4453    1.7131    2.7273 C   0  0  0  0  0  0  0  0  0  0  0  0
    4.1948    0.5497    0.0482 C   0  0  0  0  0  0  0  0  0  0  0  0
    4.9863    1.7123   -0.0146 O   0  0  0  0  0  0  0  0  0  0  0  0
    4.5698    3.0389    0.2854 C   0  0  0  0  0  0  0  0  0  0  0  0
    6.8367   -2.4703   -0.9384 H   0  0  0  0  0  0  0  0  0  0  0  0
    7.7115   -1.3103   -2.0035 H   0  0  0  0  0  0  0  0  0  0  0  0
    6.1410   -2.0000   -2.5529 H   0  0  0  0  0  0  0  0  0  0  0  0
    4.3946   -2.7124   -0.9452 H   0  0  0  0  0  0  0  0  0  0  0  0
    2.1401   -2.7566   -0.0412 H   0  0  0  0  0  0  0  0  0  0  0  0
    0.3960    0.2317    1.5026 H   0  0  0  0  0  0  0  0  0  0  0  0
    0.5967   -1.5231    1.7942 H   0  0  0  0  0  0  0  0  0  0  0  0
   -0.0494   -0.3131   -0.8704 H   0  0  0  0  0  0  0  0  0  0  0  0
   -0.0557   -1.9731   -0.4574 H   0  0  0  0  0  0  0  0  0  0  0  0
   -1.8419    0.1575    0.6419 H   0  0  0  0  0  0  0  0  0  0  0  0
   -1.8120   -1.5620    1.2027 H   0  0  0  0  0  0  0  0  0  0  0  0
   -2.4424   -2.3607   -1.0494 H   0  0  0  0  0  0  0  0  0  0  0  0
   -2.3510   -0.6953   -1.7150 H   0  0  0  0  0  0  0  0  0  0  0  0
   -4.5079   -2.8861    0.7209 H   0  0  0  0  0  0  0  0  0  0  0  0
   -6.7778   -1.7445    1.1794 H   0  0  0  0  0  0  0  0  0  0  0  0
   -7.9013    0.6783    0.5620 H   0  0  0  0  0  0  0  0  0  0  0  0
   -7.4557    2.8434   -0.6099 H   0  0  0  0  0  0  0  0  0  0  0  0
   -5.2742    3.2271   -1.7438 H   0  0  0  0  0  0  0  0  0  0  0  0
   -3.5156    1.4548   -1.7185 H   0  0  0  0  0  0  0  0  0  0  0  0
    3.4985    1.6506    3.0760 H   0  0  0  0  0  0  0  0  0  0  0  0
    2.0164    2.6840    3.0462 H   0  0  0  0  0  0  0  0  0  0  0  0
    1.8632    0.8915    3.1930 H   0  0  0  0  0  0  0  0  0  0  0  0
    3.6305    3.2813   -0.2544 H   0  0  0  0  0  0  0  0  0  0  0  0
    4.4464    3.1637    1.3782 H   0  0  0  0  0  0  0  0  0  0  0  0
    5.3579    3.7477   -0.0479 H   0  0  0  0  0  0  0  0  0  0  0  0
  1  2  1  0
  2  3  1  0
  3  4  2  0
  4  5  1  0
  5  6  2  0
  6  7  1  0
  7  8  1  0
  8  9  1  0
  9 10  1  0
 10 11  1  0
 11 12  2  0
 12 13  1  0
 13 14  1  0
 14 15  2  0
 15 16  1  0
 16 17  2  0
 17 18  1  0
 18 19  2  0
  6 20  1  0
 20 21  1  0
 21 22  1  0
 20 23  2  0
 23 24  1  0
 24 25  1  0
 23  3  1  0
 19 11  1  0
 19 14  1  0
  1 26  1  0
  1 27  1  0
  1 28  1  0
  4 29  1  0
  5 30  1  0
  7 31  1  0
  7 32  1  0
  8 33  1  0
  8 34  1  0
  9 35  1  0
  9 36  1  0
 10 37  1  0
 10 38  1  0
 12 39  1  0
 13 40  1  0
 15 41  1  0
 16 42  1  0
 17 43  1  0
 18 44  1  0
 22 45  1  0
 22 46  1  0
 22 47  1  0
 25 48  1  0
 25 49  1  0
 25 50  1  0
M  CHG  1   8   1
M  END
>  <UniqueID>  (79) 
78

>  <SMILES>  (79) 
COc1ccc(C[NH2+]CCc2c[nH]c3ccccc23)c(OC)c1OC

>  <Energy>  (79) 
90.95416088096029

>  <Genealogy>  (79) 
COc1ccc(C[NH2+]CCc2c[nH]c3ccccc23)c(OC)c1OC (protonated)
COc1ccc(C[NH2+]CCc2c[nH]c3ccccc23)c(OC)c1OC (3D coordinates assigned)
COc1ccc(C[NH2+]CCc2c[nH]c3ccccc23)c(OC)c1OC (optimized conformer: 90.95416088096029 kcal/mol)

$$$$
untitled_line_79
     RDKit          3D

 38 39  0  0  0  0  0  0  0  0999 V2000
   -4.6021    1.7517   -0.5427 C   0  0  0  0  0  0  0  0  0  0  0  0
   -4.5001    0.3798    0.1232 C   0  0  0  0  0  0  0  0  0  0  0  0
   -4.6103   -0.7814   -0.8811 C   0  0  0  0  0  0  0  0  0  0  0  0
   -3.4144   -0.8993   -1.8394 C   0  0  0  0  0  0  0  0  0  0  0  0
   -2.1421   -1.2187   -1.1095 C   0  0  0  0  0  0  0  0  0  0  0  0
   -1.9182   -2.4050   -0.7450 O   0  0  0  0  0  0  0  0  0  0  0  0
   -1.2071   -0.1782   -0.7963 N   0  0  0  0  0  0  0  0  0  0  0  0
    0.0079   -0.4514   -0.0302 C   0  0  0  0  0  0  0  0  0  0  0  0
    0.8145    0.8309    0.1878 C   0  0  0  0  0  0  0  0  0  0  0  0
    2.0559    0.5453    0.9783 C   0  0  0  0  0  0  0  0  0  0  0  0
    2.1992    0.6380    2.3595 C   0  0  0  0  0  0  0  0  0  0  0  0
    3.4346    0.2334    2.7338 N   0  0  0  0  0  0  0  0  0  0  0  0
    4.0667   -0.1258    1.6029 C   0  0  0  0  0  0  0  0  0  0  0  0
    5.3610   -0.6300    1.4816 C   0  0  0  0  0  0  0  0  0  0  0  0
    5.8186   -0.9637    0.1936 C   0  0  0  0  0  0  0  0  0  0  0  0
    4.9806   -0.7917   -0.9307 C   0  0  0  0  0  0  0  0  0  0  0  0
    3.6780   -0.2827   -0.7779 C   0  0  0  0  0  0  0  0  0  0  0  0
    3.2550    0.0446    0.5106 C   0  0  0  0  0  0  0  0  0  0  0  0
   -5.5247    1.8180   -1.1575 H   0  0  0  0  0  0  0  0  0  0  0  0
   -3.7168    1.9474   -1.1815 H   0  0  0  0  0  0  0  0  0  0  0  0
   -4.6422    2.5386    0.2397 H   0  0  0  0  0  0  0  0  0  0  0  0
   -5.3332    0.2872    0.8531 H   0  0  0  0  0  0  0  0  0  0  0  0
   -3.5515    0.3123    0.6971 H   0  0  0  0  0  0  0  0  0  0  0  0
   -5.5399   -0.6613   -1.4791 H   0  0  0  0  0  0  0  0  0  0  0  0
   -4.7115   -1.7329   -0.3142 H   0  0  0  0  0  0  0  0  0  0  0  0
   -3.6213   -1.7172   -2.5630 H   0  0  0  0  0  0  0  0  0  0  0  0
   -3.2969    0.0294   -2.4356 H   0  0  0  0  0  0  0  0  0  0  0  0
   -1.4148    0.7961   -1.1136 H   0  0  0  0  0  0  0  0  0  0  0  0
   -0.2719   -0.8832    0.9559 H   0  0  0  0  0  0  0  0  0  0  0  0
    0.6280   -1.1914   -0.5821 H   0  0  0  0  0  0  0  0  0  0  0  0
    1.0943    1.2709   -0.7936 H   0  0  0  0  0  0  0  0  0  0  0  0
    0.1930    1.5736    0.7338 H   0  0  0  0  0  0  0  0  0  0  0  0
    1.4374    0.9720    3.0519 H   0  0  0  0  0  0  0  0  0  0  0  0
    3.8114    0.1949    3.7070 H   0  0  0  0  0  0  0  0  0  0  0  0
    5.9934   -0.7640    2.3497 H   0  0  0  0  0  0  0  0  0  0  0  0
    6.8182   -1.3577    0.0640 H   0  0  0  0  0  0  0  0  0  0  0  0
    5.3422   -1.0549   -1.9162 H   0  0  0  0  0  0  0  0  0  0  0  0
    3.0292   -0.1525   -1.6342 H   0  0  0  0  0  0  0  0  0  0  0  0
  1  2  1  0
  2  3  1  0
  3  4  1  0
  4  5  1  0
  5  6  2  0
  5  7  1  0
  7  8  1  0
  8  9  1  0
  9 10  1  0
 10 11  2  0
 11 12  1  0
 12 13  1  0
 13 14  2  0
 14 15  1  0
 15 16  2  0
 16 17  1  0
 17 18  2  0
 18 10  1  0
 18 13  1  0
  1 19  1  0
  1 20  1  0
  1 21  1  0
  2 22  1  0
  2 23  1  0
  3 24  1  0
  3 25  1  0
  4 26  1  0
  4 27  1  0
  7 28  1  0
  8 29  1  0
  8 30  1  0
  9 31  1  0
  9 32  1  0
 11 33  1  0
 12 34  1  0
 14 35  1  0
 15 36  1  0
 16 37  1  0
 17 38  1  0
M  END
>  <UniqueID>  (80) 
79

>  <SMILES>  (80) 
CCCCC(=O)NCCc1c[nH]c2ccccc12

>  <Energy>  (80) 
57.973204873059764

>  <Genealogy>  (80) 
CCCCC(=O)NCCc1c[nH]c2ccccc12 (3D coordinates assigned)
CCCCC(=O)NCCc1c[nH]c2ccccc12 (optimized conformer: 57.973204873059764 kcal/mol)

$$$$
untitled_line_80
     RDKit          3D

 54 58  0  0  0  0  0  0  0  0999 V2000
   -0.1294   -0.4338   -0.1552 O   0  0  0  0  0  0  0  0  0  0  0  0
   -0.4210   -0.2448    1.2064 C   0  0  2  0  0  0  0  0  0  0  0  0
    0.6163   -0.9967    2.0496 C   0  0  0  0  0  0  0  0  0  0  0  0
    1.9617   -0.4962    1.7483 N   0  0  0  0  0  0  0  0  0  0  0  0
    2.9810   -1.2823    2.4534 C   0  0  0  0  0  0  0  0  0  0  0  0
    4.3803   -0.8941    1.9674 C   0  0  0  0  0  0  0  0  0  0  0  0
    4.5644   -1.2407    0.5178 C   0  0  0  0  0  0  0  0  0  0  0  0
    4.9714   -2.4706    0.0094 C   0  0  0  0  0  0  0  0  0  0  0  0
    4.9254   -2.4619   -1.3423 N   0  0  0  0  0  0  0  0  0  0  0  0
    4.4793   -1.2428   -1.6913 C   0  0  0  0  0  0  0  0  0  0  0  0
    4.2370   -0.7695   -2.9802 C   0  0  0  0  0  0  0  0  0  0  0  0
    3.7385    0.5389   -3.1175 C   0  0  0  0  0  0  0  0  0  0  0  0
    3.4936    1.3348   -1.9767 C   0  0  0  0  0  0  0  0  0  0  0  0
    3.7463    0.8306   -0.6881 C   0  0  0  0  0  0  0  0  0  0  0  0
    4.2434   -0.4693   -0.5833 C   0  0  0  0  0  0  0  0  0  0  0  0
   -1.8376   -0.7547    1.5156 C   0  0  0  0  0  0  0  0  0  0  0  0
   -2.8402    0.0269    0.7837 N   0  0  0  0  0  0  0  0  0  0  0  0
   -3.3606    1.2294    1.1384 C   0  0  0  0  0  0  0  0  0  0  0  0
   -3.0940    1.9757    2.2910 C   0  0  0  0  0  0  0  0  0  0  0  0
   -3.7464    3.2127    2.4447 C   0  0  0  0  0  0  0  0  0  0  0  0
   -4.6394    3.6819    1.4568 C   0  0  0  0  0  0  0  0  0  0  0  0
   -4.8894    2.9211    0.3015 C   0  0  0  0  0  0  0  0  0  0  0  0
   -4.2324    1.6985    0.1754 C   0  0  0  0  0  0  0  0  0  0  0  0
   -4.2475    0.7551   -0.8263 C   0  0  0  0  0  0  0  0  0  0  0  0
   -4.9244    0.7147   -2.0438 C   0  0  0  0  0  0  0  0  0  0  0  0
   -4.7039   -0.3946   -2.8782 C   0  0  0  0  0  0  0  0  0  0  0  0
   -3.8194   -1.4224   -2.4853 C   0  0  0  0  0  0  0  0  0  0  0  0
   -3.1465   -1.3558   -1.2516 C   0  0  0  0  0  0  0  0  0  0  0  0
   -3.3841   -0.2483   -0.4300 C   0  0  0  0  0  0  0  0  0  0  0  0
   -0.4714    0.3628   -0.6390 H   0  0  0  0  0  0  0  0  0  0  0  0
   -0.3613    0.8381    1.4702 H   0  0  0  0  0  0  0  0  0  0  0  0
    0.5513   -2.0822    1.8097 H   0  0  0  0  0  0  0  0  0  0  0  0
    0.3926   -0.8566    3.1319 H   0  0  0  0  0  0  0  0  0  0  0  0
    2.0240    0.4914    2.0929 H   0  0  0  0  0  0  0  0  0  0  0  0
    2.8316   -2.3711    2.2734 H   0  0  0  0  0  0  0  0  0  0  0  0
    2.9137   -1.0981    3.5493 H   0  0  0  0  0  0  0  0  0  0  0  0
    4.5499    0.1928    2.1234 H   0  0  0  0  0  0  0  0  0  0  0  0
    5.1376   -1.4403    2.5700 H   0  0  0  0  0  0  0  0  0  0  0  0
    5.2658   -3.3299    0.5979 H   0  0  0  0  0  0  0  0  0  0  0  0
    5.1672   -3.2520   -1.9809 H   0  0  0  0  0  0  0  0  0  0  0  0
    4.4209   -1.3894   -3.8481 H   0  0  0  0  0  0  0  0  0  0  0  0
    3.5383    0.9368   -4.1038 H   0  0  0  0  0  0  0  0  0  0  0  0
    3.1074    2.3389   -2.0943 H   0  0  0  0  0  0  0  0  0  0  0  0
    3.5583    1.4358    0.1887 H   0  0  0  0  0  0  0  0  0  0  0  0
   -2.0368   -0.6791    2.6063 H   0  0  0  0  0  0  0  0  0  0  0  0
   -1.9222   -1.8307    1.2542 H   0  0  0  0  0  0  0  0  0  0  0  0
   -2.4052    1.6244    3.0473 H   0  0  0  0  0  0  0  0  0  0  0  0
   -3.5599    3.8110    3.3269 H   0  0  0  0  0  0  0  0  0  0  0  0
   -5.1322    4.6364    1.5878 H   0  0  0  0  0  0  0  0  0  0  0  0
   -5.5666    3.2781   -0.4635 H   0  0  0  0  0  0  0  0  0  0  0  0
   -5.5943    1.5104   -2.3425 H   0  0  0  0  0  0  0  0  0  0  0  0
   -5.2126   -0.4587   -3.8313 H   0  0  0  0  0  0  0  0  0  0  0  0
   -3.6549   -2.2678   -3.1405 H   0  0  0  0  0  0  0  0  0  0  0  0
   -2.4633   -2.1426   -0.9633 H   0  0  0  0  0  0  0  0  0  0  0  0
  1  2  1  0
  2  3  1  0
  3  4  1  0
  4  5  1  0
  5  6  1  0
  6  7  1  0
  7  8  2  0
  8  9  1  0
  9 10  1  0
 10 11  2  0
 11 12  1  0
 12 13  2  0
 13 14  1  0
 14 15  2  0
  2 16  1  0
 16 17  1  0
 17 18  1  0
 18 19  2  0
 19 20  1  0
 20 21  2  0
 21 22  1  0
 22 23  2  0
 23 24  1  0
 24 25  2  0
 25 26  1  0
 26 27  2  0
 27 28  1  0
 28 29  2  0
 15  7  1  0
 29 17  1  0
 15 10  1  0
 23 18  1  0
 29 24  1  0
  1 30  1  0
  2 31  1  1
  3 32  1  0
  3 33  1  0
  4 34  1  0
  5 35  1  0
  5 36  1  0
  6 37  1  0
  6 38  1  0
  8 39  1  0
  9 40  1  0
 11 41  1  0
 12 42  1  0
 13 43  1  0
 14 44  1  0
 16 45  1  0
 16 46  1  0
 19 47  1  0
 20 48  1  0
 21 49  1  0
 22 50  1  0
 25 51  1  0
 26 52  1  0
 27 53  1  0
 28 54  1  0
M  END
>  <UniqueID>  (81) 
80

>  <SMILES>  (81) 
O[C@H](CNCCc1c[nH]c2ccccc12)Cn1c2ccccc2c2ccccc21

>  <Energy>  (81) 
125.243968598452

>  <Genealogy>  (81) 
O[C@H](CNCCc1c[nH]c2ccccc12)Cn1c2ccccc2c2ccccc21 (chirality)
O[C@H](CNCCc1c[nH]c2ccccc12)Cn1c2ccccc2c2ccccc21 (3D coordinates assigned)
O[C@H](CNCCc1c[nH]c2ccccc12)Cn1c2ccccc2c2ccccc21 (optimized conformer: 125.243968598452 kcal/mol)

$$$$
untitled_line_81
     RDKit          3D

 39 41  0  0  0  0  0  0  0  0999 V2000
   -7.0757    3.1578    1.9443 N   0  0  0  0  0  4  0  0  0  0  0  0
   -5.6941    2.9482    1.6138 C   0  0  0  0  0  0  0  0  0  0  0  0
   -5.0946    1.6983    1.8322 C   0  0  0  0  0  0  0  0  0  0  0  0
   -3.7614    1.4793    1.4728 C   0  0  0  0  0  0  0  0  0  0  0  0
   -3.0043    2.5057    0.8790 C   0  0  0  0  0  0  0  0  0  0  0  0
   -1.5912    2.2872    0.4856 C   0  0  0  0  0  0  0  0  0  0  0  0
   -1.0880    2.9953   -0.4297 O   0  0  0  0  0  0  0  0  0  0  0  0
   -0.7813    1.2976    1.1396 N   0  0  0  0  0  0  0  0  0  0  0  0
    0.5563    0.9681    0.6475 C   0  0  0  0  0  0  0  0  0  0  0  0
    1.2074   -0.1120    1.5152 C   0  0  0  0  0  0  0  0  0  0  0  0
    2.5743   -0.4496    0.9999 C   0  0  0  0  0  0  0  0  0  0  0  0
    3.7786    0.1122    1.4133 C   0  0  0  0  0  0  0  0  0  0  0  0
    4.8040   -0.3774    0.6793 N   0  0  0  0  0  0  0  0  0  0  0  0
    4.2558   -1.2325   -0.2015 C   0  0  0  0  0  0  0  0  0  0  0  0
    4.9135   -1.9700   -1.1852 C   0  0  0  0  0  0  0  0  0  0  0  0
    4.1358   -2.7941   -2.0192 C   0  0  0  0  0  0  0  0  0  0  0  0
    2.7340   -2.8589   -1.8559 C   0  0  0  0  0  0  0  0  0  0  0  0
    2.0970   -2.1017   -0.8558 C   0  0  0  0  0  0  0  0  0  0  0  0
    2.8953   -1.2988   -0.0408 C   0  0  0  0  0  0  0  0  0  0  0  0
   -3.6193    3.7457    0.6304 C   0  0  0  0  0  0  0  0  0  0  0  0
   -4.9520    3.9634    0.9913 C   0  0  0  0  0  0  0  0  0  0  0  0
   -7.3444    2.5764    2.7710 H   0  0  0  0  0  0  0  0  0  0  0  0
   -7.2447    4.1621    2.1823 H   0  0  0  0  0  0  0  0  0  0  0  0
   -7.6646    2.8901    1.1234 H   0  0  0  0  0  0  0  0  0  0  0  0
   -5.6638    0.8911    2.2760 H   0  0  0  0  0  0  0  0  0  0  0  0
   -3.3392    0.4968    1.6354 H   0  0  0  0  0  0  0  0  0  0  0  0
   -1.1357    0.8353    2.0069 H   0  0  0  0  0  0  0  0  0  0  0  0
    0.4781    0.6038   -0.4004 H   0  0  0  0  0  0  0  0  0  0  0  0
    1.1878    1.8835    0.6618 H   0  0  0  0  0  0  0  0  0  0  0  0
    1.2880    0.2501    2.5631 H   0  0  0  0  0  0  0  0  0  0  0  0
    0.5760   -1.0265    1.5143 H   0  0  0  0  0  0  0  0  0  0  0  0
    3.8954    0.8466    2.1996 H   0  0  0  0  0  0  0  0  0  0  0  0
    5.8137   -0.1273    0.7714 H   0  0  0  0  0  0  0  0  0  0  0  0
    5.9873   -1.9090   -1.3067 H   0  0  0  0  0  0  0  0  0  0  0  0
    4.6146   -3.3798   -2.7931 H   0  0  0  0  0  0  0  0  0  0  0  0
    2.1457   -3.4938   -2.5055 H   0  0  0  0  0  0  0  0  0  0  0  0
    1.0231   -2.1432   -0.7279 H   0  0  0  0  0  0  0  0  0  0  0  0
   -3.0669    4.5512    0.1624 H   0  0  0  0  0  0  0  0  0  0  0  0
   -5.4071    4.9244    0.7865 H   0  0  0  0  0  0  0  0  0  0  0  0
  1  2  1  0
  2  3  2  0
  3  4  1  0
  4  5  2  0
  5  6  1  0
  6  7  2  0
  6  8  1  0
  8  9  1  0
  9 10  1  0
 10 11  1  0
 11 12  2  0
 12 13  1  0
 13 14  1  0
 14 15  2  0
 15 16  1  0
 16 17  2  0
 17 18  1  0
 18 19  2  0
  5 20  1  0
 20 21  2  0
 21  2  1  0
 19 11  1  0
 19 14  1  0
  1 22  1  0
  1 23  1  0
  1 24  1  0
  3 25  1  0
  4 26  1  0
  8 27  1  0
  9 28  1  0
  9 29  1  0
 10 30  1  0
 10 31  1  0
 12 32  1  0
 13 33  1  0
 15 34  1  0
 16 35  1  0
 17 36  1  0
 18 37  1  0
 20 38  1  0
 21 39  1  0
M  CHG  1   1   1
M  END
>  <UniqueID>  (82) 
81

>  <SMILES>  (82) 
[NH3+]c1ccc(C(=O)NCCc2c[nH]c3ccccc23)cc1

>  <Energy>  (82) 
72.32047537921477

>  <Genealogy>  (82) 
[NH3+]c1ccc(C(=O)NCCc2c[nH]c3ccccc23)cc1 (protonated)
[NH3+]c1ccc(C(=O)NCCc2c[nH]c3ccccc23)cc1 (3D coordinates assigned)
[NH3+]c1ccc(C(=O)NCCc2c[nH]c3ccccc23)cc1 (optimized conformer: 72.32047537921477 kcal/mol)

$$$$
untitled_line_82
     RDKit          3D

 41 43  0  0  0  0  0  0  0  0999 V2000
   -5.7440    1.8634    0.4968 C   0  0  0  0  0  0  0  0  0  0  0  0
   -5.0702    0.5718    0.1391 C   0  0  0  0  0  0  0  0  0  0  0  0
   -5.7602   -0.6434    0.2649 C   0  0  0  0  0  0  0  0  0  0  0  0
   -5.1179   -1.8501   -0.0240 C   0  0  0  0  0  0  0  0  0  0  0  0
   -3.7818   -1.8542   -0.4322 C   0  0  0  0  0  0  0  0  0  0  0  0
   -3.0780   -0.6465   -0.5602 C   0  0  0  0  0  0  0  0  0  0  0  0
   -1.6228   -0.6528   -0.9531 C   0  0  0  0  0  0  0  0  0  0  0  0
   -0.7682   -0.7172    0.2440 N   0  0  0  0  0  4  0  0  0  0  0  0
    0.6627   -0.8205   -0.0952 C   0  0  0  0  0  0  0  0  0  0  0  0
    1.2562    0.5261   -0.5407 C   0  0  0  0  0  0  0  0  0  0  0  0
    2.7359    0.4029   -0.7502 C   0  0  0  0  0  0  0  0  0  0  0  0
    3.3816    0.0987   -1.9450 C   0  0  0  0  0  0  0  0  0  0  0  0
    4.7158   -0.0044   -1.7472 N   0  0  0  0  0  0  0  0  0  0  0  0
    4.9157    0.2187   -0.4365 C   0  0  0  0  0  0  0  0  0  0  0  0
    6.1297    0.1981    0.2488 C   0  0  0  0  0  0  0  0  0  0  0  0
    6.1064    0.4392    1.6349 C   0  0  0  0  0  0  0  0  0  0  0  0
    4.8840    0.6884    2.2978 C   0  0  0  0  0  0  0  0  0  0  0  0
    3.6737    0.7008    1.5807 C   0  0  0  0  0  0  0  0  0  0  0  0
    3.7297    0.4647    0.2068 C   0  0  0  0  0  0  0  0  0  0  0  0
   -3.7224    0.5634   -0.2539 C   0  0  0  0  0  0  0  0  0  0  0  0
   -6.8356    1.8043    0.2994 H   0  0  0  0  0  0  0  0  0  0  0  0
   -5.3313    2.7001   -0.1061 H   0  0  0  0  0  0  0  0  0  0  0  0
   -5.5818    2.0783    1.5736 H   0  0  0  0  0  0  0  0  0  0  0  0
   -6.7931   -0.6569    0.5904 H   0  0  0  0  0  0  0  0  0  0  0  0
   -5.6547   -2.7847    0.0757 H   0  0  0  0  0  0  0  0  0  0  0  0
   -3.2940   -2.7981   -0.6420 H   0  0  0  0  0  0  0  0  0  0  0  0
   -1.4055    0.2665   -1.5384 H   0  0  0  0  0  0  0  0  0  0  0  0
   -1.4234   -1.5235   -1.6179 H   0  0  0  0  0  0  0  0  0  0  0  0
   -1.0293   -1.5690    0.7950 H   0  0  0  0  0  0  0  0  0  0  0  0
   -0.9334    0.1229    0.8473 H   0  0  0  0  0  0  0  0  0  0  0  0
    1.2159   -1.1654    0.8078 H   0  0  0  0  0  0  0  0  0  0  0  0
    0.8248   -1.5873   -0.8863 H   0  0  0  0  0  0  0  0  0  0  0  0
    1.0595    1.3029    0.2289 H   0  0  0  0  0  0  0  0  0  0  0  0
    0.7899    0.8588   -1.4910 H   0  0  0  0  0  0  0  0  0  0  0  0
    2.8996   -0.0502   -2.9025 H   0  0  0  0  0  0  0  0  0  0  0  0
    5.4388   -0.2278   -2.4668 H   0  0  0  0  0  0  0  0  0  0  0  0
    7.0605   -0.0001   -0.2667 H   0  0  0  0  0  0  0  0  0  0  0  0
    7.0310    0.4304    2.1972 H   0  0  0  0  0  0  0  0  0  0  0  0
    4.8780    0.8690    3.3648 H   0  0  0  0  0  0  0  0  0  0  0  0
    2.7332    0.8863    2.0829 H   0  0  0  0  0  0  0  0  0  0  0  0
   -3.1748    1.4963   -0.3206 H   0  0  0  0  0  0  0  0  0  0  0  0
  1  2  1  0
  2  3  2  0
  3  4  1  0
  4  5  2  0
  5  6  1  0
  6  7  1  0
  7  8  1  0
  8  9  1  0
  9 10  1  0
 10 11  1  0
 11 12  2  0
 12 13  1  0
 13 14  1  0
 14 15  2  0
 15 16  1  0
 16 17  2  0
 17 18  1  0
 18 19  2  0
  6 20  2  0
 20  2  1  0
 19 11  1  0
 19 14  1  0
  1 21  1  0
  1 22  1  0
  1 23  1  0
  3 24  1  0
  4 25  1  0
  5 26  1  0
  7 27  1  0
  7 28  1  0
  8 29  1  0
  8 30  1  0
  9 31  1  0
  9 32  1  0
 10 33  1  0
 10 34  1  0
 12 35  1  0
 13 36  1  0
 15 37  1  0
 16 38  1  0
 17 39  1  0
 18 40  1  0
 20 41  1  0
M  CHG  1   8   1
M  END
>  <UniqueID>  (83) 
82

>  <SMILES>  (83) 
Cc1cccc(C[NH2+]CCc2c[nH]c3ccccc23)c1

>  <Energy>  (83) 
72.1409787193414

>  <Genealogy>  (83) 
Cc1cccc(C[NH2+]CCc2c[nH]c3ccccc23)c1 (protonated)
Cc1cccc(C[NH2+]CCc2c[nH]c3ccccc23)c1 (3D coordinates assigned)
Cc1cccc(C[NH2+]CCc2c[nH]c3ccccc23)c1 (optimized conformer: 72.1409787193414 kcal/mol)

$$$$
untitled_line_83
     RDKit          3D

 31 32  0  0  0  0  0  0  0  0999 V2000
    4.8886    0.8751   -0.1590 C   0  0  0  0  0  0  0  0  0  0  0  0
    3.4207    0.9578   -0.5739 C   0  0  0  0  0  0  0  0  0  0  0  0
    2.6478   -0.1492    0.0086 N   0  0  0  0  0  4  0  0  0  0  0  0
    1.2365   -0.0628   -0.3950 C   0  0  0  0  0  0  0  0  0  0  0  0
    0.4264   -1.2148    0.2114 C   0  0  0  0  0  0  0  0  0  0  0  0
   -1.0124   -1.1220   -0.2000 C   0  0  0  0  0  0  0  0  0  0  0  0
   -1.6045   -1.7474   -1.2933 C   0  0  0  0  0  0  0  0  0  0  0  0
   -2.9015   -1.3788   -1.4022 N   0  0  0  0  0  0  0  0  0  0  0  0
   -3.1288   -0.5168   -0.3957 C   0  0  0  0  0  0  0  0  0  0  0  0
   -4.3186    0.1501   -0.1065 C   0  0  0  0  0  0  0  0  0  0  0  0
   -4.3286    1.0309    0.9907 C   0  0  0  0  0  0  0  0  0  0  0  0
   -3.1617    1.2262    1.7628 C   0  0  0  0  0  0  0  0  0  0  0  0
   -1.9744    0.5410    1.4461 C   0  0  0  0  0  0  0  0  0  0  0  0
   -1.9974   -0.3299    0.3565 C   0  0  0  0  0  0  0  0  0  0  0  0
    5.3343   -0.0792   -0.5115 H   0  0  0  0  0  0  0  0  0  0  0  0
    5.4516    1.7194   -0.6096 H   0  0  0  0  0  0  0  0  0  0  0  0
    4.9794    0.9356    0.9463 H   0  0  0  0  0  0  0  0  0  0  0  0
    3.0109    1.9344   -0.2309 H   0  0  0  0  0  0  0  0  0  0  0  0
    3.3649    0.9222   -1.6851 H   0  0  0  0  0  0  0  0  0  0  0  0
    3.0461   -1.0596   -0.3230 H   0  0  0  0  0  0  0  0  0  0  0  0
    2.7110   -0.1014    1.0532 H   0  0  0  0  0  0  0  0  0  0  0  0
    0.8033    0.9043   -0.0514 H   0  0  0  0  0  0  0  0  0  0  0  0
    1.1558   -0.1108   -1.5051 H   0  0  0  0  0  0  0  0  0  0  0  0
    0.8437   -2.1868   -0.1300 H   0  0  0  0  0  0  0  0  0  0  0  0
    0.4948   -1.1830    1.3201 H   0  0  0  0  0  0  0  0  0  0  0  0
   -1.1097   -2.4250   -1.9769 H   0  0  0  0  0  0  0  0  0  0  0  0
   -3.5808   -1.6910   -2.1313 H   0  0  0  0  0  0  0  0  0  0  0  0
   -5.2058   -0.0012   -0.7076 H   0  0  0  0  0  0  0  0  0  0  0  0
   -5.2357    1.5648    1.2427 H   0  0  0  0  0  0  0  0  0  0  0  0
   -3.1804    1.9087    2.6024 H   0  0  0  0  0  0  0  0  0  0  0  0
   -1.0757    0.6891    2.0305 H   0  0  0  0  0  0  0  0  0  0  0  0
  1  2  1  0
  2  3  1  0
  3  4  1  0
  4  5  1  0
  5  6  1  0
  6  7  2  0
  7  8  1  0
  8  9  1  0
  9 10  2  0
 10 11  1  0
 11 12  2  0
 12 13  1  0
 13 14  2  0
 14  6  1  0
 14  9  1  0
  1 15  1  0
  1 16  1  0
  1 17  1  0
  2 18  1  0
  2 19  1  0
  3 20  1  0
  3 21  1  0
  4 22  1  0
  4 23  1  0
  5 24  1  0
  5 25  1  0
  7 26  1  0
  8 27  1  0
 10 28  1  0
 11 29  1  0
 12 30  1  0
 13 31  1  0
M  CHG  1   3   1
M  END
>  <UniqueID>  (84) 
83

>  <SMILES>  (84) 
CC[NH2+]CCc1c[nH]c2ccccc12

>  <Energy>  (84) 
56.65834340210641

>  <Genealogy>  (84) 
CC[NH2+]CCc1c[nH]c2ccccc12 (protonated)
CC[NH2+]CCc1c[nH]c2ccccc12 (3D coordinates assigned)
CC[NH2+]CCc1c[nH]c2ccccc12 (optimized conformer: 56.65834340210641 kcal/mol)

$$$$
untitled_line_84
     RDKit          3D

 40 41  0  0  0  0  0  0  0  0999 V2000
    6.2395   -1.1536    0.7007 C   0  0  0  0  0  0  0  0  0  0  0  0
    5.4961   -0.9393   -0.6232 C   0  0  0  0  0  0  0  0  0  0  0  0
    4.3093    0.0569   -0.5622 C   0  0  2  0  0  0  0  0  0  0  0  0
    4.6617    1.3684    0.1506 C   0  0  0  0  0  0  0  0  0  0  0  0
    3.0546   -0.5491    0.0347 C   0  0  0  0  0  0  0  0  0  0  0  0
    3.1421   -1.3546    1.0001 O   0  0  0  0  0  0  0  0  0  0  0  0
    1.7149   -0.1613   -0.4583 C   0  0  0  0  0  0  0  0  0  0  0  0
    1.6096    0.7013   -1.3727 O   0  0  0  0  0  0  0  0  0  0  0  0
    0.5331   -0.7552    0.0996 N   0  0  0  0  0  0  0  0  0  0  0  0
   -0.8002   -0.3743   -0.3663 C   0  0  0  0  0  0  0  0  0  0  0  0
   -1.8845   -1.1470    0.3889 C   0  0  0  0  0  0  0  0  0  0  0  0
   -3.2476   -0.7507   -0.0934 C   0  0  0  0  0  0  0  0  0  0  0  0
   -3.9898   -1.3782   -1.0896 C   0  0  0  0  0  0  0  0  0  0  0  0
   -5.1415   -0.7052   -1.3144 N   0  0  0  0  0  0  0  0  0  0  0  0
   -5.1261    0.3479   -0.4786 C   0  0  0  0  0  0  0  0  0  0  0  0
   -6.0933    1.3448   -0.3571 C   0  0  0  0  0  0  0  0  0  0  0  0
   -5.8631    2.3741    0.5742 C   0  0  0  0  0  0  0  0  0  0  0  0
   -4.6833    2.3858    1.3513 C   0  0  0  0  0  0  0  0  0  0  0  0
   -3.7236    1.3675    1.2058 C   0  0  0  0  0  0  0  0  0  0  0  0
   -3.9828    0.3576    0.2788 C   0  0  0  0  0  0  0  0  0  0  0  0
    7.0074   -1.9439    0.5637 H   0  0  0  0  0  0  0  0  0  0  0  0
    5.5538   -1.4766    1.5083 H   0  0  0  0  0  0  0  0  0  0  0  0
    6.7611   -0.2244    1.0114 H   0  0  0  0  0  0  0  0  0  0  0  0
    6.2333   -0.5673   -1.3682 H   0  0  0  0  0  0  0  0  0  0  0  0
    5.1317   -1.9217   -0.9960 H   0  0  0  0  0  0  0  0  0  0  0  0
    4.0876    0.3166   -1.6210 H   0  0  0  0  0  0  0  0  0  0  0  0
    5.5965    1.7955   -0.2710 H   0  0  0  0  0  0  0  0  0  0  0  0
    4.7937    1.2049    1.2414 H   0  0  0  0  0  0  0  0  0  0  0  0
    3.8466    2.1094    0.0057 H   0  0  0  0  0  0  0  0  0  0  0  0
    0.6305   -1.4734    0.8531 H   0  0  0  0  0  0  0  0  0  0  0  0
   -0.8825   -0.5907   -1.4541 H   0  0  0  0  0  0  0  0  0  0  0  0
   -0.9438    0.7169   -0.2068 H   0  0  0  0  0  0  0  0  0  0  0  0
   -1.7416   -2.2384    0.2329 H   0  0  0  0  0  0  0  0  0  0  0  0
   -1.8039   -0.9412    1.4781 H   0  0  0  0  0  0  0  0  0  0  0  0
   -3.6971   -2.2707   -1.6271 H   0  0  0  0  0  0  0  0  0  0  0  0
   -5.8826   -0.9491   -2.0085 H   0  0  0  0  0  0  0  0  0  0  0  0
   -6.9911    1.3306   -0.9613 H   0  0  0  0  0  0  0  0  0  0  0  0
   -6.5935    3.1637    0.6936 H   0  0  0  0  0  0  0  0  0  0  0  0
   -4.5156    3.1844    2.0621 H   0  0  0  0  0  0  0  0  0  0  0  0
   -2.8156    1.3726    1.7947 H   0  0  0  0  0  0  0  0  0  0  0  0
  1  2  1  0
  2  3  1  0
  3  4  1  0
  3  5  1  0
  5  6  2  0
  5  7  1  0
  7  8  2  0
  7  9  1  0
  9 10  1  0
 10 11  1  0
 11 12  1  0
 12 13  2  0
 13 14  1  0
 14 15  1  0
 15 16  2  0
 16 17  1  0
 17 18  2  0
 18 19  1  0
 19 20  2  0
 20 12  1  0
 20 15  1  0
  1 21  1  0
  1 22  1  0
  1 23  1  0
  2 24  1  0
  2 25  1  0
  3 26  1  6
  4 27  1  0
  4 28  1  0
  4 29  1  0
  9 30  1  0
 10 31  1  0
 10 32  1  0
 11 33  1  0
 11 34  1  0
 13 35  1  0
 14 36  1  0
 16 37  1  0
 17 38  1  0
 18 39  1  0
 19 40  1  0
M  END
>  <UniqueID>  (85) 
84

>  <SMILES>  (85) 
CC[C@H](C)C(=O)C(=O)NCCc1c[nH]c2ccccc12

>  <Energy>  (85) 
63.96901395929289

>  <Genealogy>  (85) 
CC[C@H](C)C(=O)C(=O)NCCc1c[nH]c2ccccc12 (3D coordinates assigned)
CC[C@H](C)C(=O)C(=O)NCCc1c[nH]c2ccccc12 (optimized conformer: 63.96901395929289 kcal/mol)

$$$$
untitled_line_85
     RDKit          3D

 36 38  0  0  0  0  0  0  0  0999 V2000
    1.4128   -1.3093   -0.3110 O   0  0  0  0  0  0  0  0  0  0  0  0
    2.0576   -0.2260   -0.2594 C   0  0  0  0  0  0  0  0  0  0  0  0
    1.3461    1.0235   -0.2465 N   0  0  0  0  0  0  0  0  0  0  0  0
   -0.1051    1.0971   -0.4021 C   0  0  0  0  0  0  0  0  0  0  0  0
   -0.8025    0.7262    0.9086 C   0  0  0  0  0  0  0  0  0  0  0  0
   -2.2914    0.7932    0.7495 C   0  0  0  0  0  0  0  0  0  0  0  0
   -3.1099    1.8801    1.0416 C   0  0  0  0  0  0  0  0  0  0  0  0
   -4.3919    1.6088    0.7053 N   0  0  0  0  0  0  0  0  0  0  0  0
   -4.3866    0.3660    0.1922 C   0  0  0  0  0  0  0  0  0  0  0  0
   -5.4745   -0.3446   -0.3134 C   0  0  0  0  0  0  0  0  0  0  0  0
   -5.2372   -1.6337   -0.8252 C   0  0  0  0  0  0  0  0  0  0  0  0
   -3.9325   -2.1756   -0.8239 C   0  0  0  0  0  0  0  0  0  0  0  0
   -2.8532   -1.4346   -0.3090 C   0  0  0  0  0  0  0  0  0  0  0  0
   -3.1210   -0.1623    0.1968 C   0  0  0  0  0  0  0  0  0  0  0  0
    3.5387   -0.2678   -0.1978 C   0  0  0  0  0  0  0  0  0  0  0  0
    4.1876   -1.4080    0.3126 C   0  0  0  0  0  0  0  0  0  0  0  0
    5.5835   -1.4627    0.3723 C   0  0  0  0  0  0  0  0  0  0  0  0
    6.3469   -0.3861   -0.0834 C   0  0  0  0  0  0  0  0  0  0  0  0
    5.7159    0.7455   -0.6042 C   0  0  0  0  0  0  0  0  0  0  0  0
    4.3200    0.8064   -0.6655 C   0  0  0  0  0  0  0  0  0  0  0  0
    1.8628    1.9192   -0.1040 H   0  0  0  0  0  0  0  0  0  0  0  0
   -0.3875    2.1357   -0.6824 H   0  0  0  0  0  0  0  0  0  0  0  0
   -0.4301    0.4223   -1.2245 H   0  0  0  0  0  0  0  0  0  0  0  0
   -0.4836    1.4281    1.7094 H   0  0  0  0  0  0  0  0  0  0  0  0
   -0.5151   -0.2999    1.2210 H   0  0  0  0  0  0  0  0  0  0  0  0
   -2.7829    2.8205    1.4659 H   0  0  0  0  0  0  0  0  0  0  0  0
   -5.2136    2.2445    0.8107 H   0  0  0  0  0  0  0  0  0  0  0  0
   -6.4694    0.0815   -0.3159 H   0  0  0  0  0  0  0  0  0  0  0  0
   -6.0594   -2.2124   -1.2255 H   0  0  0  0  0  0  0  0  0  0  0  0
   -3.7615   -3.1668   -1.2232 H   0  0  0  0  0  0  0  0  0  0  0  0
   -1.8503   -1.8416   -0.3088 H   0  0  0  0  0  0  0  0  0  0  0  0
    3.6152   -2.2526    0.6760 H   0  0  0  0  0  0  0  0  0  0  0  0
    6.0734   -2.3411    0.7724 H   0  0  0  0  0  0  0  0  0  0  0  0
    7.4274   -0.4308   -0.0379 H   0  0  0  0  0  0  0  0  0  0  0  0
    6.3093    1.5745   -0.9680 H   0  0  0  0  0  0  0  0  0  0  0  0
    3.8619    1.6829   -1.1030 H   0  0  0  0  0  0  0  0  0  0  0  0
  1  2  2  0
  2  3  1  0
  3  4  1  0
  4  5  1  0
  5  6  1  0
  6  7  2  0
  7  8  1  0
  8  9  1  0
  9 10  2  0
 10 11  1  0
 11 12  2  0
 12 13  1  0
 13 14  2  0
  2 15  1  0
 15 16  2  0
 16 17  1  0
 17 18  2  0
 18 19  1  0
 19 20  2  0
 14  6  1  0
 20 15  1  0
 14  9  1  0
  3 21  1  0
  4 22  1  0
  4 23  1  0
  5 24  1  0
  5 25  1  0
  7 26  1  0
  8 27  1  0
 10 28  1  0
 11 29  1  0
 12 30  1  0
 13 31  1  0
 16 32  1  0
 17 33  1  0
 18 34  1  0
 19 35  1  0
 20 36  1  0
M  END
>  <UniqueID>  (86) 
85

>  <SMILES>  (86) 
O=C(NCCc1c[nH]c2ccccc12)c1ccccc1

>  <Energy>  (86) 
68.72717203612258

>  <Genealogy>  (86) 
O=C(NCCc1c[nH]c2ccccc12)c1ccccc1 (3D coordinates assigned)
O=C(NCCc1c[nH]c2ccccc12)c1ccccc1 (optimized conformer: 68.72717203612258 kcal/mol)

$$$$
untitled_line_86
     RDKit          3D

 54 58  0  0  0  0  0  0  0  0999 V2000
   -1.0154   -0.6286    1.5082 O   0  0  0  0  0  0  0  0  0  0  0  0
   -0.6614    0.5560    0.8429 C   0  0  1  0  0  0  0  0  0  0  0  0
    0.8758    0.7578    0.8440 C   0  0  0  0  0  0  0  0  0  0  0  0
    1.6284   -0.1824   -0.0047 N   0  0  0  0  0  0  0  0  0  0  0  0
    1.5535   -1.5741    0.4584 C   0  0  0  0  0  0  0  0  0  0  0  0
    2.7079   -2.3891   -0.1282 C   0  0  0  0  0  0  0  0  0  0  0  0
    4.0327   -1.8967    0.3777 C   0  0  0  0  0  0  0  0  0  0  0  0
    4.6464   -2.2590    1.5731 C   0  0  0  0  0  0  0  0  0  0  0  0
    5.7900   -1.5583    1.7481 N   0  0  0  0  0  0  0  0  0  0  0  0
    5.8966   -0.7481    0.6807 C   0  0  0  0  0  0  0  0  0  0  0  0
    6.9031    0.1819    0.4238 C   0  0  0  0  0  0  0  0  0  0  0  0
    6.8065    0.9484   -0.7526 C   0  0  0  0  0  0  0  0  0  0  0  0
    7.7637    1.8643   -1.0401 F   0  0  0  0  0  0  0  0  0  0  0  0
    5.7160    0.7714   -1.6334 C   0  0  0  0  0  0  0  0  0  0  0  0
    4.7140   -0.1736   -1.3475 C   0  0  0  0  0  0  0  0  0  0  0  0
    4.8398   -0.9215   -0.1762 C   0  0  0  0  0  0  0  0  0  0  0  0
   -1.2629    0.5578   -0.5711 C   0  0  0  0  0  0  0  0  0  0  0  0
   -2.7266    0.6260   -0.5040 N   0  0  0  0  0  0  0  0  0  0  0  0
   -3.4919    1.7399   -0.3763 C   0  0  0  0  0  0  0  0  0  0  0  0
   -3.0696    3.0722   -0.3183 C   0  0  0  0  0  0  0  0  0  0  0  0
   -4.0488    4.0716   -0.1711 C   0  0  0  0  0  0  0  0  0  0  0  0
   -5.4160    3.7305   -0.0803 C   0  0  0  0  0  0  0  0  0  0  0  0
   -5.8209    2.3854   -0.1325 C   0  0  0  0  0  0  0  0  0  0  0  0
   -4.8312    1.4156   -0.2813 C   0  0  0  0  0  0  0  0  0  0  0  0
   -4.9026    0.0425   -0.3398 C   0  0  0  0  0  0  0  0  0  0  0  0
   -5.9889   -0.8277   -0.2699 C   0  0  0  0  0  0  0  0  0  0  0  0
   -5.7272   -2.2071   -0.3346 C   0  0  0  0  0  0  0  0  0  0  0  0
   -4.4031   -2.6803   -0.4609 C   0  0  0  0  0  0  0  0  0  0  0  0
   -3.3238   -1.7803   -0.5268 C   0  0  0  0  0  0  0  0  0  0  0  0
   -3.6035   -0.4104   -0.4680 C   0  0  0  0  0  0  0  0  0  0  0  0
   -0.8654   -0.4714    2.4769 H   0  0  0  0  0  0  0  0  0  0  0  0
   -1.1026    1.4215    1.3912 H   0  0  0  0  0  0  0  0  0  0  0  0
    1.2575    0.7087    1.8874 H   0  0  0  0  0  0  0  0  0  0  0  0
    1.0909    1.7888    0.4886 H   0  0  0  0  0  0  0  0  0  0  0  0
    1.3128   -0.1175   -0.9994 H   0  0  0  0  0  0  0  0  0  0  0  0
    1.6040   -1.6286    1.5693 H   0  0  0  0  0  0  0  0  0  0  0  0
    0.5977   -2.0340    0.1246 H   0  0  0  0  0  0  0  0  0  0  0  0
    2.5832   -3.4544    0.1626 H   0  0  0  0  0  0  0  0  0  0  0  0
    2.6808   -2.3409   -1.2379 H   0  0  0  0  0  0  0  0  0  0  0  0
    4.2684   -2.9848    2.2814 H   0  0  0  0  0  0  0  0  0  0  0  0
    6.4454   -1.6243    2.5584 H   0  0  0  0  0  0  0  0  0  0  0  0
    7.7307    0.3132    1.1089 H   0  0  0  0  0  0  0  0  0  0  0  0
    5.6489    1.3675   -2.5342 H   0  0  0  0  0  0  0  0  0  0  0  0
    3.8753   -0.3102   -2.0173 H   0  0  0  0  0  0  0  0  0  0  0  0
   -0.9576   -0.3532   -1.1258 H   0  0  0  0  0  0  0  0  0  0  0  0
   -0.8766    1.4263   -1.1463 H   0  0  0  0  0  0  0  0  0  0  0  0
   -2.0231    3.3388   -0.3787 H   0  0  0  0  0  0  0  0  0  0  0  0
   -3.7511    5.1110   -0.1243 H   0  0  0  0  0  0  0  0  0  0  0  0
   -6.1577    4.5101    0.0349 H   0  0  0  0  0  0  0  0  0  0  0  0
   -6.8662    2.1162   -0.0552 H   0  0  0  0  0  0  0  0  0  0  0  0
   -7.0007   -0.4582   -0.1653 H   0  0  0  0  0  0  0  0  0  0  0  0
   -6.5469   -2.9118   -0.2830 H   0  0  0  0  0  0  0  0  0  0  0  0
   -4.2161   -3.7453   -0.5046 H   0  0  0  0  0  0  0  0  0  0  0  0
   -2.3122   -2.1517   -0.6152 H   0  0  0  0  0  0  0  0  0  0  0  0
  1  2  1  0
  2  3  1  0
  3  4  1  0
  4  5  1  0
  5  6  1  0
  6  7  1  0
  7  8  2  0
  8  9  1  0
  9 10  1  0
 10 11  2  0
 11 12  1  0
 12 13  1  0
 12 14  2  0
 14 15  1  0
 15 16  2  0
  2 17  1  0
 17 18  1  0
 18 19  1  0
 19 20  2  0
 20 21  1  0
 21 22  2  0
 22 23  1  0
 23 24  2  0
 24 25  1  0
 25 26  2  0
 26 27  1  0
 27 28  2  0
 28 29  1  0
 29 30  2  0
 16  7  1  0
 30 18  1  0
 16 10  1  0
 24 19  1  0
 30 25  1  0
  1 31  1  0
  2 32  1  1
  3 33  1  0
  3 34  1  0
  4 35  1  0
  5 36  1  0
  5 37  1  0
  6 38  1  0
  6 39  1  0
  8 40  1  0
  9 41  1  0
 11 42  1  0
 14 43  1  0
 15 44  1  0
 17 45  1  0
 17 46  1  0
 20 47  1  0
 21 48  1  0
 22 49  1  0
 23 50  1  0
 26 51  1  0
 27 52  1  0
 28 53  1  0
 29 54  1  0
M  END
>  <UniqueID>  (87) 
86

>  <SMILES>  (87) 
O[C@@H](CNCCc1c[nH]c2cc(F)ccc12)Cn1c2ccccc2c2ccccc21

>  <Energy>  (87) 
130.2370531557201

>  <Genealogy>  (87) 
O[C@@H](CNCCc1c[nH]c2cc(F)ccc12)Cn1c2ccccc2c2ccccc21 (chirality)
O[C@@H](CNCCc1c[nH]c2cc(F)ccc12)Cn1c2ccccc2c2ccccc21 (3D coordinates assigned)
O[C@@H](CNCCc1c[nH]c2cc(F)ccc12)Cn1c2ccccc2c2ccccc21 (optimized conformer: 130.2370531557201 kcal/mol)

$$$$
untitled_line_87
     RDKit          3D

 41 43  0  0  0  0  0  0  0  0999 V2000
    3.3187   -0.1809    3.5504 F   0  0  0  0  0  0  0  0  0  0  0  0
    2.6018   -0.9678    2.6686 C   0  0  0  0  0  0  0  0  0  0  0  0
    3.4707   -1.8322    2.0255 F   0  0  0  0  0  0  0  0  0  0  0  0
    1.6876   -1.7243    3.3813 F   0  0  0  0  0  0  0  0  0  0  0  0
    1.9047   -0.0823    1.6671 C   0  0  0  0  0  0  0  0  0  0  0  0
    0.5871    0.3539    1.8875 C   0  0  0  0  0  0  0  0  0  0  0  0
   -0.0439    1.1961    0.9672 C   0  0  0  0  0  0  0  0  0  0  0  0
    0.6350    1.6315   -0.1821 C   0  0  0  0  0  0  0  0  0  0  0  0
   -0.0357    2.5803   -1.1525 C   0  0  0  0  0  0  0  0  0  0  0  0
   -0.0601    2.0628   -2.5378 N   0  0  0  0  0  4  0  0  0  0  0  0
   -1.2788    1.2990   -2.8732 C   0  0  0  0  0  0  0  0  0  0  0  0
   -1.4003   -0.0517   -2.1415 C   0  0  0  0  0  0  0  0  0  0  0  0
   -0.2065   -0.9534   -2.3162 C   0  0  0  0  0  0  0  0  0  0  0  0
    0.5728   -1.1199   -3.4611 C   0  0  0  0  0  0  0  0  0  0  0  0
    1.5198   -2.0632   -3.2573 N   0  0  0  0  0  0  0  0  0  0  0  0
    1.3294   -2.5169   -2.0072 C   0  0  0  0  0  0  0  0  0  0  0  0
    2.0483   -3.5170   -1.3539 C   0  0  0  0  0  0  0  0  0  0  0  0
    1.6537   -3.8656   -0.0497 C   0  0  0  0  0  0  0  0  0  0  0  0
    0.5548   -3.2226    0.5605 C   0  0  0  0  0  0  0  0  0  0  0  0
   -0.1526   -2.2177   -0.1233 C   0  0  0  0  0  0  0  0  0  0  0  0
    0.2740   -1.8783   -1.4080 C   0  0  0  0  0  0  0  0  0  0  0  0
    1.9725    1.2449   -0.3701 C   0  0  0  0  0  0  0  0  0  0  0  0
    2.5986    0.3909    0.5416 C   0  0  0  0  0  0  0  0  0  0  0  0
    0.0410    0.0388    2.7674 H   0  0  0  0  0  0  0  0  0  0  0  0
   -1.0634    1.5093    1.1545 H   0  0  0  0  0  0  0  0  0  0  0  0
   -1.0630    2.8404   -0.8115 H   0  0  0  0  0  0  0  0  0  0  0  0
    0.5398    3.5327   -1.1289 H   0  0  0  0  0  0  0  0  0  0  0  0
    0.7955    1.5082   -2.7626 H   0  0  0  0  0  0  0  0  0  0  0  0
   -0.0411    2.8906   -3.1789 H   0  0  0  0  0  0  0  0  0  0  0  0
   -2.1832    1.9096   -2.6548 H   0  0  0  0  0  0  0  0  0  0  0  0
   -1.2941    1.1066   -3.9690 H   0  0  0  0  0  0  0  0  0  0  0  0
   -2.2932   -0.5846   -2.5317 H   0  0  0  0  0  0  0  0  0  0  0  0
   -1.5858    0.1336   -1.0653 H   0  0  0  0  0  0  0  0  0  0  0  0
    0.4540   -0.5823   -4.3924 H   0  0  0  0  0  0  0  0  0  0  0  0
    2.2389   -2.3850   -3.9427 H   0  0  0  0  0  0  0  0  0  0  0  0
    2.8805   -4.0138   -1.8355 H   0  0  0  0  0  0  0  0  0  0  0  0
    2.1914   -4.6364    0.4867 H   0  0  0  0  0  0  0  0  0  0  0  0
    0.2551   -3.5037    1.5616 H   0  0  0  0  0  0  0  0  0  0  0  0
   -0.9979   -1.7269    0.3401 H   0  0  0  0  0  0  0  0  0  0  0  0
    2.5367    1.6101   -1.2188 H   0  0  0  0  0  0  0  0  0  0  0  0
    3.6297    0.1069    0.3720 H   0  0  0  0  0  0  0  0  0  0  0  0
  1  2  1  0
  2  3  1  0
  2  4  1  0
  2  5  1  0
  5  6  2  0
  6  7  1  0
  7  8  2  0
  8  9  1  0
  9 10  1  0
 10 11  1  0
 11 12  1  0
 12 13  1  0
 13 14  2  0
 14 15  1  0
 15 16  1  0
 16 17  2  0
 17 18  1  0
 18 19  2  0
 19 20  1  0
 20 21  2  0
  8 22  1  0
 22 23  2  0
 23  5  1  0
 21 13  1  0
 21 16  1  0
  6 24  1  0
  7 25  1  0
  9 26  1  0
  9 27  1  0
 10 28  1  0
 10 29  1  0
 11 30  1  0
 11 31  1  0
 12 32  1  0
 12 33  1  0
 14 34  1  0
 15 35  1  0
 17 36  1  0
 18 37  1  0
 19 38  1  0
 20 39  1  0
 22 40  1  0
 23 41  1  0
M  CHG  1  10   1
M  END
>  <UniqueID>  (88) 
87

>  <SMILES>  (88) 
FC(F)(F)c1ccc(C[NH2+]CCc2c[nH]c3ccccc23)cc1

>  <Energy>  (88) 
73.44335245101456

>  <Genealogy>  (88) 
FC(F)(F)c1ccc(C[NH2+]CCc2c[nH]c3ccccc23)cc1 (protonated)
FC(F)(F)c1ccc(C[NH2+]CCc2c[nH]c3ccccc23)cc1 (3D coordinates assigned)
FC(F)(F)c1ccc(C[NH2+]CCc2c[nH]c3ccccc23)cc1 (optimized conformer: 73.44335245101456 kcal/mol)

$$$$
untitled_line_88
     RDKit          3D

 36 38  0  0  0  0  0  0  0  0999 V2000
    2.1716   -1.2073   -1.4245 O   0  0  0  0  0  0  0  0  0  0  0  0
    2.3713   -0.2142   -0.6729 C   0  0  0  0  0  0  0  0  0  0  0  0
    1.3024    0.7035   -0.3990 N   0  0  0  0  0  0  0  0  0  0  0  0
   -0.0858    0.4198   -0.7551 C   0  0  0  0  0  0  0  0  0  0  0  0
   -0.6682   -0.6424    0.1797 C   0  0  0  0  0  0  0  0  0  0  0  0
   -2.1048   -0.9086   -0.1554 C   0  0  0  0  0  0  0  0  0  0  0  0
   -2.5870   -1.8885   -1.0180 C   0  0  0  0  0  0  0  0  0  0  0  0
   -3.9307   -1.7902   -1.1392 N   0  0  0  0  0  0  0  0  0  0  0  0
   -4.2982   -0.7494   -0.3715 C   0  0  0  0  0  0  0  0  0  0  0  0
   -5.5857   -0.2461   -0.1899 C   0  0  0  0  0  0  0  0  0  0  0  0
   -5.7418    0.8736    0.6478 C   0  0  0  0  0  0  0  0  0  0  0  0
   -4.6200    1.4607    1.2746 C   0  0  0  0  0  0  0  0  0  0  0  0
   -3.3320    0.9326    1.0712 C   0  0  0  0  0  0  0  0  0  0  0  0
   -3.2101   -0.1815    0.2404 C   0  0  0  0  0  0  0  0  0  0  0  0
    3.7246    0.0195   -0.1262 C   0  0  0  0  0  0  0  0  0  0  0  0
    4.8363   -0.1456   -0.9709 C   0  0  0  0  0  0  0  0  0  0  0  0
    6.1297    0.0820   -0.4944 C   0  0  0  0  0  0  0  0  0  0  0  0
    6.3290    0.4660    0.8321 C   0  0  0  0  0  0  0  0  0  0  0  0
    5.2362    0.6131    1.6887 C   0  0  0  0  0  0  0  0  0  0  0  0
    3.9343    0.3881    1.2230 C   0  0  0  0  0  0  0  0  0  0  0  0
    2.6132    0.4923    2.3837 Cl  0  0  0  0  0  0  0  0  0  0  0  0
    1.5275    1.6380    0.0109 H   0  0  0  0  0  0  0  0  0  0  0  0
   -0.6812    1.3548   -0.6629 H   0  0  0  0  0  0  0  0  0  0  0  0
   -0.1420    0.0805   -1.8126 H   0  0  0  0  0  0  0  0  0  0  0  0
   -0.0904   -1.5869    0.0873 H   0  0  0  0  0  0  0  0  0  0  0  0
   -0.5909   -0.2971    1.2331 H   0  0  0  0  0  0  0  0  0  0  0  0
   -1.9859   -2.6242   -1.5363 H   0  0  0  0  0  0  0  0  0  0  0  0
   -4.5512   -2.3932   -1.7240 H   0  0  0  0  0  0  0  0  0  0  0  0
   -6.4383   -0.6989   -0.6793 H   0  0  0  0  0  0  0  0  0  0  0  0
   -6.7275    1.2896    0.8103 H   0  0  0  0  0  0  0  0  0  0  0  0
   -4.7518    2.3237    1.9141 H   0  0  0  0  0  0  0  0  0  0  0  0
   -2.4678    1.3800    1.5447 H   0  0  0  0  0  0  0  0  0  0  0  0
    4.7013   -0.4353   -2.0060 H   0  0  0  0  0  0  0  0  0  0  0  0
    6.9784   -0.0385   -1.1553 H   0  0  0  0  0  0  0  0  0  0  0  0
    7.3320    0.6398    1.1999 H   0  0  0  0  0  0  0  0  0  0  0  0
    5.4037    0.8902    2.7219 H   0  0  0  0  0  0  0  0  0  0  0  0
  1  2  2  0
  2  3  1  0
  3  4  1  0
  4  5  1  0
  5  6  1  0
  6  7  2  0
  7  8  1  0
  8  9  1  0
  9 10  2  0
 10 11  1  0
 11 12  2  0
 12 13  1  0
 13 14  2  0
  2 15  1  0
 15 16  2  0
 16 17  1  0
 17 18  2  0
 18 19  1  0
 19 20  2  0
 20 21  1  0
 14  6  1  0
 20 15  1  0
 14  9  1  0
  3 22  1  0
  4 23  1  0
  4 24  1  0
  5 25  1  0
  5 26  1  0
  7 27  1  0
  8 28  1  0
 10 29  1  0
 11 30  1  0
 12 31  1  0
 13 32  1  0
 16 33  1  0
 17 34  1  0
 18 35  1  0
 19 36  1  0
M  END
>  <UniqueID>  (89) 
88

>  <SMILES>  (89) 
O=C(NCCc1c[nH]c2ccccc12)c1ccccc1Cl

>  <Energy>  (89) 
71.52168359275663

>  <Genealogy>  (89) 
O=C(NCCc1c[nH]c2ccccc12)c1ccccc1Cl (3D coordinates assigned)
O=C(NCCc1c[nH]c2ccccc12)c1ccccc1Cl (optimized conformer: 71.52168359275663 kcal/mol)

$$$$
untitled_line_89
     RDKit          3D

 41 43  0  0  0  0  0  0  0  0999 V2000
   -3.0710    3.0869    0.7188 F   0  0  0  0  0  0  0  0  0  0  0  0
   -3.8410    2.2323    1.4840 C   0  0  0  0  0  0  0  0  0  0  0  0
   -3.7620    2.6120    2.8113 F   0  0  0  0  0  0  0  0  0  0  0  0
   -5.1555    2.3742    1.0725 F   0  0  0  0  0  0  0  0  0  0  0  0
   -3.3587    0.7984    1.3401 C   0  0  0  0  0  0  0  0  0  0  0  0
   -4.2989   -0.2180    1.0676 C   0  0  0  0  0  0  0  0  0  0  0  0
   -3.9100   -1.5556    0.9965 C   0  0  0  0  0  0  0  0  0  0  0  0
   -2.5824   -1.9101    1.2143 C   0  0  0  0  0  0  0  0  0  0  0  0
   -1.6352   -0.9283    1.4980 C   0  0  0  0  0  0  0  0  0  0  0  0
   -1.9981    0.4305    1.5591 C   0  0  0  0  0  0  0  0  0  0  0  0
   -0.9062    1.4488    1.8402 C   0  0  0  0  0  0  0  0  0  0  0  0
   -0.3050    1.9764    0.5952 N   0  0  0  0  0  4  0  0  0  0  0  0
    0.8203    1.1620    0.0986 C   0  0  0  0  0  0  0  0  0  0  0  0
    2.1342    1.4763    0.8331 C   0  0  0  0  0  0  0  0  0  0  0  0
    3.2269    0.5657    0.3604 C   0  0  0  0  0  0  0  0  0  0  0  0
    4.1607    0.8331   -0.6360 C   0  0  0  0  0  0  0  0  0  0  0  0
    4.9418   -0.2501   -0.8526 N   0  0  0  0  0  0  0  0  0  0  0  0
    4.4999   -1.2016   -0.0116 C   0  0  0  0  0  0  0  0  0  0  0  0
    4.9774   -2.5053    0.1167 C   0  0  0  0  0  0  0  0  0  0  0  0
    4.3458   -3.3479    1.0502 C   0  0  0  0  0  0  0  0  0  0  0  0
    3.2613   -2.8753    1.8226 C   0  0  0  0  0  0  0  0  0  0  0  0
    2.7997   -1.5552    1.6704 C   0  0  0  0  0  0  0  0  0  0  0  0
    3.4499   -0.7426    0.7414 C   0  0  0  0  0  0  0  0  0  0  0  0
   -5.3450    0.0136    0.9159 H   0  0  0  0  0  0  0  0  0  0  0  0
   -4.6446   -2.3216    0.7837 H   0  0  0  0  0  0  0  0  0  0  0  0
   -2.2864   -2.9503    1.1694 H   0  0  0  0  0  0  0  0  0  0  0  0
   -0.6132   -1.2344    1.6814 H   0  0  0  0  0  0  0  0  0  0  0  0
   -0.1352    0.9963    2.5005 H   0  0  0  0  0  0  0  0  0  0  0  0
   -1.3170    2.2892    2.4374 H   0  0  0  0  0  0  0  0  0  0  0  0
    0.0217    2.9574    0.7612 H   0  0  0  0  0  0  0  0  0  0  0  0
   -1.0290    2.0226   -0.1591 H   0  0  0  0  0  0  0  0  0  0  0  0
    0.5861    0.0793    0.1713 H   0  0  0  0  0  0  0  0  0  0  0  0
    0.9728    1.3796   -0.9829 H   0  0  0  0  0  0  0  0  0  0  0  0
    2.0170    1.3533    1.9290 H   0  0  0  0  0  0  0  0  0  0  0  0
    2.4256    2.5316    0.6410 H   0  0  0  0  0  0  0  0  0  0  0  0
    4.2537    1.7636   -1.1807 H   0  0  0  0  0  0  0  0  0  0  0  0
    5.7183   -0.3320   -1.5460 H   0  0  0  0  0  0  0  0  0  0  0  0
    5.8043   -2.8605   -0.4845 H   0  0  0  0  0  0  0  0  0  0  0  0
    4.6912   -4.3660    1.1745 H   0  0  0  0  0  0  0  0  0  0  0  0
    2.7811   -3.5334    2.5349 H   0  0  0  0  0  0  0  0  0  0  0  0
    1.9672   -1.1872    2.2559 H   0  0  0  0  0  0  0  0  0  0  0  0
  1  2  1  0
  2  3  1  0
  2  4  1  0
  2  5  1  0
  5  6  2  0
  6  7  1  0
  7  8  2  0
  8  9  1  0
  9 10  2  0
 10 11  1  0
 11 12  1  0
 12 13  1  0
 13 14  1  0
 14 15  1  0
 15 16  2  0
 16 17  1  0
 17 18  1  0
 18 19  2  0
 19 20  1  0
 20 21  2  0
 21 22  1  0
 22 23  2  0
 10  5  1  0
 23 15  1  0
 23 18  1  0
  6 24  1  0
  7 25  1  0
  8 26  1  0
  9 27  1  0
 11 28  1  0
 11 29  1  0
 12 30  1  0
 12 31  1  0
 13 32  1  0
 13 33  1  0
 14 34  1  0
 14 35  1  0
 16 36  1  0
 17 37  1  0
 19 38  1  0
 20 39  1  0
 21 40  1  0
 22 41  1  0
M  CHG  1  12   1
M  END
>  <UniqueID>  (90) 
89

>  <SMILES>  (90) 
FC(F)(F)c1ccccc1C[NH2+]CCc1c[nH]c2ccccc12

>  <Energy>  (90) 
78.9350952475645

>  <Genealogy>  (90) 
FC(F)(F)c1ccccc1C[NH2+]CCc1c[nH]c2ccccc12 (protonated)
FC(F)(F)c1ccccc1C[NH2+]CCc1c[nH]c2ccccc12 (3D coordinates assigned)
FC(F)(F)c1ccccc1C[NH2+]CCc1c[nH]c2ccccc12 (optimized conformer: 78.9350952475645 kcal/mol)

$$$$
untitled_line_90
     RDKit          3D

 45 48  0  0  0  0  0  0  0  0999 V2000
   -1.1220   -1.6880   -2.3942 O   0  0  0  0  0  0  0  0  0  0  0  0
   -2.2102   -1.2618   -1.6310 C   0  0  0  0  0  0  0  0  0  0  0  0
   -3.2725   -2.1421   -1.4033 C   0  0  0  0  0  0  0  0  0  0  0  0
   -4.3614   -1.7536   -0.6302 C   0  0  0  0  0  0  0  0  0  0  0  0
   -4.4005   -0.4792   -0.0542 C   0  0  0  0  0  0  0  0  0  0  0  0
   -5.4960   -0.1103    0.7429 C   0  0  0  0  0  0  0  0  0  0  0  0
   -5.5403    1.1488    1.3397 C   0  0  0  0  0  0  0  0  0  0  0  0
   -4.4929    2.0482    1.1515 C   0  0  0  0  0  0  0  0  0  0  0  0
   -3.3965    1.6997    0.3591 C   0  0  0  0  0  0  0  0  0  0  0  0
   -3.3312    0.4338   -0.2679 C   0  0  0  0  0  0  0  0  0  0  0  0
   -2.2354    0.0442   -1.0921 C   0  0  0  0  0  0  0  0  0  0  0  0
   -1.0612    0.9696   -1.3672 C   0  0  0  0  0  0  0  0  0  0  0  0
   -0.0792    0.8971   -0.2750 N   0  0  0  0  0  4  0  0  0  0  0  0
    1.0595    1.7920   -0.5391 C   0  0  0  0  0  0  0  0  0  0  0  0
    2.0599    1.7963    0.6267 C   0  0  0  0  0  0  0  0  0  0  0  0
    2.7239    0.4610    0.7974 C   0  0  0  0  0  0  0  0  0  0  0  0
    2.3867   -0.5207    1.7247 C   0  0  0  0  0  0  0  0  0  0  0  0
    3.1526   -1.6212    1.5463 N   0  0  0  0  0  0  0  0  0  0  0  0
    3.9633   -1.3459    0.5097 C   0  0  0  0  0  0  0  0  0  0  0  0
    4.9227   -2.1829   -0.0584 C   0  0  0  0  0  0  0  0  0  0  0  0
    5.6538   -1.6945   -1.1569 C   0  0  0  0  0  0  0  0  0  0  0  0
    5.4104   -0.3964   -1.6587 C   0  0  0  0  0  0  0  0  0  0  0  0
    4.4346    0.4256   -1.0661 C   0  0  0  0  0  0  0  0  0  0  0  0
    3.7287   -0.0851    0.0234 C   0  0  0  0  0  0  0  0  0  0  0  0
   -1.0797   -2.6204   -2.7890 H   0  0  0  0  0  0  0  0  0  0  0  0
   -3.2527   -3.1383   -1.8270 H   0  0  0  0  0  0  0  0  0  0  0  0
   -5.1703   -2.4572   -0.4716 H   0  0  0  0  0  0  0  0  0  0  0  0
   -6.3166   -0.7987    0.9081 H   0  0  0  0  0  0  0  0  0  0  0  0
   -6.3866    1.4260    1.9550 H   0  0  0  0  0  0  0  0  0  0  0  0
   -4.5286    3.0212    1.6247 H   0  0  0  0  0  0  0  0  0  0  0  0
   -2.6077    2.4304    0.2616 H   0  0  0  0  0  0  0  0  0  0  0  0
   -1.4141    2.0120   -1.5175 H   0  0  0  0  0  0  0  0  0  0  0  0
   -0.5744    0.6953   -2.3295 H   0  0  0  0  0  0  0  0  0  0  0  0
   -0.5355    1.1736    0.6256 H   0  0  0  0  0  0  0  0  0  0  0  0
    0.2632   -0.0893   -0.1990 H   0  0  0  0  0  0  0  0  0  0  0  0
    1.5818    1.4848   -1.4733 H   0  0  0  0  0  0  0  0  0  0  0  0
    0.6951    2.8346   -0.6791 H   0  0  0  0  0  0  0  0  0  0  0  0
    1.5414    2.0826    1.5672 H   0  0  0  0  0  0  0  0  0  0  0  0
    2.8402    2.5628    0.4315 H   0  0  0  0  0  0  0  0  0  0  0  0
    1.6139   -0.4382    2.4779 H   0  0  0  0  0  0  0  0  0  0  0  0
    3.1099   -2.5081    2.0960 H   0  0  0  0  0  0  0  0  0  0  0  0
    5.0988   -3.1776    0.3302 H   0  0  0  0  0  0  0  0  0  0  0  0
    6.4060   -2.3183   -1.6218 H   0  0  0  0  0  0  0  0  0  0  0  0
    5.9776   -0.0321   -2.5052 H   0  0  0  0  0  0  0  0  0  0  0  0
    4.2415    1.4203   -1.4464 H   0  0  0  0  0  0  0  0  0  0  0  0
  1  2  1  0
  2  3  2  0
  3  4  1  0
  4  5  2  0
  5  6  1  0
  6  7  2  0
  7  8  1  0
  8  9  2  0
  9 10  1  0
 10 11  2  0
 11 12  1  0
 12 13  1  0
 13 14  1  0
 14 15  1  0
 15 16  1  0
 16 17  2  0
 17 18  1  0
 18 19  1  0
 19 20  2  0
 20 21  1  0
 21 22  2  0
 22 23  1  0
 23 24  2  0
 11  2  1  0
 24 16  1  0
 10  5  1  0
 24 19  1  0
  1 25  1  0
  3 26  1  0
  4 27  1  0
  6 28  1  0
  7 29  1  0
  8 30  1  0
  9 31  1  0
 12 32  1  0
 12 33  1  0
 13 34  1  0
 13 35  1  0
 14 36  1  0
 14 37  1  0
 15 38  1  0
 15 39  1  0
 17 40  1  0
 18 41  1  0
 20 42  1  0
 21 43  1  0
 22 44  1  0
 23 45  1  0
M  CHG  1  13   1
M  END
>  <UniqueID>  (91) 
90

>  <SMILES>  (91) 
Oc1ccc2ccccc2c1C[NH2+]CCc1c[nH]c2ccccc12

>  <Energy>  (91) 
84.51388076995592

>  <Genealogy>  (91) 
Oc1ccc2ccccc2c1C[NH2+]CCc1c[nH]c2ccccc12 (protonated)
Oc1ccc2ccccc2c1C[NH2+]CCc1c[nH]c2ccccc12 (3D coordinates assigned)
Oc1ccc2ccccc2c1C[NH2+]CCc1c[nH]c2ccccc12 (optimized conformer: 84.51388076995592 kcal/mol)

$$$$
untitled_line_91
     RDKit          3D

 40 41  0  0  0  0  0  0  0  0999 V2000
   -6.2389    0.1762    0.5645 C   0  0  0  0  0  0  0  0  0  0  0  0
   -4.8513    0.8189    0.5698 C   0  0  0  0  0  0  0  0  0  0  0  0
   -3.7103   -0.2148    0.4335 C   0  0  2  0  0  0  0  0  0  0  0  0
   -3.5766   -1.0932    1.6845 C   0  0  0  0  0  0  0  0  0  0  0  0
   -2.3940    0.4851    0.1727 C   0  0  0  0  0  0  0  0  0  0  0  0
   -2.0805    1.4893    0.8691 O   0  0  0  0  0  0  0  0  0  0  0  0
   -1.4409   -0.0193   -0.8394 C   0  0  0  0  0  0  0  0  0  0  0  0
   -1.7078   -1.0702   -1.4839 O   0  0  0  0  0  0  0  0  0  0  0  0
   -0.2098    0.6751   -1.0885 N   0  0  0  0  0  0  0  0  0  0  0  0
    0.7608    0.1752   -2.0638 C   0  0  0  0  0  0  0  0  0  0  0  0
    2.0239    1.0434   -2.1003 C   0  0  0  0  0  0  0  0  0  0  0  0
    2.7949    0.9462   -0.8155 C   0  0  0  0  0  0  0  0  0  0  0  0
    2.7812    1.8607    0.2339 C   0  0  0  0  0  0  0  0  0  0  0  0
    3.5521    1.4199    1.2542 N   0  0  0  0  0  0  0  0  0  0  0  0
    4.0456    0.2327    0.8614 C   0  0  0  0  0  0  0  0  0  0  0  0
    4.8863   -0.6137    1.5831 C   0  0  0  0  0  0  0  0  0  0  0  0
    5.2744   -1.8247    0.9809 C   0  0  0  0  0  0  0  0  0  0  0  0
    4.8173   -2.1594   -0.3132 C   0  0  0  0  0  0  0  0  0  0  0  0
    3.9685   -1.2862   -1.0176 C   0  0  0  0  0  0  0  0  0  0  0  0
    3.6032   -0.0921   -0.3955 C   0  0  0  0  0  0  0  0  0  0  0  0
   -7.0133    0.9718    0.5449 H   0  0  0  0  0  0  0  0  0  0  0  0
   -6.3951   -0.4322    1.4791 H   0  0  0  0  0  0  0  0  0  0  0  0
   -6.3689   -0.4636   -0.3340 H   0  0  0  0  0  0  0  0  0  0  0  0
   -4.7282    1.4107    1.5034 H   0  0  0  0  0  0  0  0  0  0  0  0
   -4.8030    1.5263   -0.2876 H   0  0  0  0  0  0  0  0  0  0  0  0
   -3.9499   -0.8754   -0.4284 H   0  0  0  0  0  0  0  0  0  0  0  0
   -4.4809   -1.7213    1.8208 H   0  0  0  0  0  0  0  0  0  0  0  0
   -3.4290   -0.4676    2.5911 H   0  0  0  0  0  0  0  0  0  0  0  0
   -2.7077   -1.7780    1.5786 H   0  0  0  0  0  0  0  0  0  0  0  0
   -0.0103    1.5573   -0.5651 H   0  0  0  0  0  0  0  0  0  0  0  0
    0.2947    0.1801   -3.0727 H   0  0  0  0  0  0  0  0  0  0  0  0
    1.0346   -0.8733   -1.8146 H   0  0  0  0  0  0  0  0  0  0  0  0
    2.6729    0.7057   -2.9365 H   0  0  0  0  0  0  0  0  0  0  0  0
    1.7474    2.1018   -2.2982 H   0  0  0  0  0  0  0  0  0  0  0  0
    2.2304    2.7921    0.2524 H   0  0  0  0  0  0  0  0  0  0  0  0
    3.7190    1.9026    2.1651 H   0  0  0  0  0  0  0  0  0  0  0  0
    5.2285   -0.3501    2.5755 H   0  0  0  0  0  0  0  0  0  0  0  0
    5.9262   -2.5048    1.5136 H   0  0  0  0  0  0  0  0  0  0  0  0
    5.1213   -3.0943   -0.7658 H   0  0  0  0  0  0  0  0  0  0  0  0
    3.6135   -1.5368   -2.0087 H   0  0  0  0  0  0  0  0  0  0  0  0
  1  2  1  0
  2  3  1  0
  3  4  1  0
  3  5  1  0
  5  6  2  0
  5  7  1  0
  7  8  2  0
  7  9  1  0
  9 10  1  0
 10 11  1  0
 11 12  1  0
 12 13  2  0
 13 14  1  0
 14 15  1  0
 15 16  2  0
 16 17  1  0
 17 18  2  0
 18 19  1  0
 19 20  2  0
 20 12  1  0
 20 15  1  0
  1 21  1  0
  1 22  1  0
  1 23  1  0
  2 24  1  0
  2 25  1  0
  3 26  1  6
  4 27  1  0
  4 28  1  0
  4 29  1  0
  9 30  1  0
 10 31  1  0
 10 32  1  0
 11 33  1  0
 11 34  1  0
 13 35  1  0
 14 36  1  0
 16 37  1  0
 17 38  1  0
 18 39  1  0
 19 40  1  0
M  END
>  <UniqueID>  (92) 
91

>  <SMILES>  (92) 
CC[C@H](C)C(=O)C(=O)NCCc1c[nH]c2ccccc12

>  <Energy>  (92) 
61.56972941604775

>  <Genealogy>  (92) 
CC[C@H](C)C(=O)C(=O)NCCc1c[nH]c2ccccc12 (chirality)
CC[C@H](C)C(=O)C(=O)NCCc1c[nH]c2ccccc12 (3D coordinates assigned)
CC[C@H](C)C(=O)C(=O)NCCc1c[nH]c2ccccc12 (optimized conformer: 61.56972941604775 kcal/mol)

$$$$
untitled_line_92
     RDKit          3D

 54 59  0  0  0  0  0  0  0  0999 V2000
   -0.5763    1.0954    3.4157 O   0  0  0  0  0  0  0  0  0  0  0  0
   -0.0906    0.5462    2.4372 C   0  0  0  0  0  0  0  0  0  0  0  0
    1.1334    1.0690    1.7660 C   0  0  0  0  0  0  0  0  0  0  0  0
    1.5161   -0.0630    0.8053 C   0  0  2  0  0  0  0  0  0  0  0  0
    1.8716    0.3811   -0.6406 C   0  0  0  0  0  0  0  0  0  0  0  0
    0.7678    1.1104   -1.3721 C   0  0  0  0  0  0  0  0  0  0  0  0
   -0.4209    0.5807   -1.8798 C   0  0  0  0  0  0  0  0  0  0  0  0
   -1.2847    1.4219   -2.5995 C   0  0  0  0  0  0  0  0  0  0  0  0
   -0.9323    2.7631   -2.8428 C   0  0  0  0  0  0  0  0  0  0  0  0
    0.2959    3.2666   -2.3866 C   0  0  0  0  0  0  0  0  0  0  0  0
    1.1292    2.4157   -1.6595 C   0  0  0  0  0  0  0  0  0  0  0  0
    2.4838    2.6263   -1.1956 C   0  0  0  0  0  0  0  0  0  0  0  0
    3.2972    3.7556   -1.2945 C   0  0  0  0  0  0  0  0  0  0  0  0
    4.6069    3.6761   -0.7948 C   0  0  0  0  0  0  0  0  0  0  0  0
    5.0783    2.4793   -0.2203 C   0  0  0  0  0  0  0  0  0  0  0  0
    4.2431    1.3527   -0.1388 C   0  0  0  0  0  0  0  0  0  0  0  0
    2.9394    1.4478   -0.6327 C   0  0  0  0  0  0  0  0  0  0  0  0
    0.3462   -0.9965    0.8957 C   0  0  0  0  0  0  0  0  0  0  0  0
    0.3004   -2.0350    0.2548 O   0  0  0  0  0  0  0  0  0  0  0  0
   -0.6383   -0.6656    1.8940 N   0  0  2  0  0  4  0  0  0  0  0  0
   -1.9857   -0.4164    1.3195 C   0  0  0  0  0  0  0  0  0  0  0  0
   -2.9167   -1.6393    1.4231 C   0  0  0  0  0  0  0  0  0  0  0  0
   -2.5597   -2.7244    0.4527 C   0  0  0  0  0  0  0  0  0  0  0  0
   -1.9683   -3.9477    0.7545 C   0  0  0  0  0  0  0  0  0  0  0  0
   -1.7613   -4.6622   -0.3754 N   0  0  0  0  0  0  0  0  0  0  0  0
   -2.2195   -3.9022   -1.3856 C   0  0  0  0  0  0  0  0  0  0  0  0
   -2.2120   -4.2097   -2.7454 C   0  0  0  0  0  0  0  0  0  0  0  0
   -2.7400   -3.2583   -3.6377 C   0  0  0  0  0  0  0  0  0  0  0  0
   -3.2609   -2.0369   -3.1560 C   0  0  0  0  0  0  0  0  0  0  0  0
   -3.2572   -1.7546   -1.7781 C   0  0  0  0  0  0  0  0  0  0  0  0
   -2.7196   -2.7136   -0.9192 C   0  0  0  0  0  0  0  0  0  0  0  0
    1.9412    1.2461    2.5087 H   0  0  0  0  0  0  0  0  0  0  0  0
    0.8841    2.0169    1.2447 H   0  0  0  0  0  0  0  0  0  0  0  0
    2.3957   -0.6017    1.2234 H   0  0  0  0  0  0  0  0  0  0  0  0
    2.2141   -0.4883   -1.2428 H   0  0  0  0  0  0  0  0  0  0  0  0
   -0.6665   -0.4621   -1.7392 H   0  0  0  0  0  0  0  0  0  0  0  0
   -2.2175    1.0319   -2.9851 H   0  0  0  0  0  0  0  0  0  0  0  0
   -1.5983    3.4006   -3.4095 H   0  0  0  0  0  0  0  0  0  0  0  0
    0.5936    4.2818   -2.6135 H   0  0  0  0  0  0  0  0  0  0  0  0
    2.9340    4.6691   -1.7466 H   0  0  0  0  0  0  0  0  0  0  0  0
    5.2592    4.5374   -0.8562 H   0  0  0  0  0  0  0  0  0  0  0  0
    6.0904    2.4268    0.1592 H   0  0  0  0  0  0  0  0  0  0  0  0
    4.6030    0.4317    0.3008 H   0  0  0  0  0  0  0  0  0  0  0  0
   -0.6483   -1.4002    2.6400 H   0  0  0  0  0  0  0  0  0  0  0  0
   -1.9271   -0.0632    0.2698 H   0  0  0  0  0  0  0  0  0  0  0  0
   -2.5014    0.3993    1.8767 H   0  0  0  0  0  0  0  0  0  0  0  0
   -2.9098   -2.0372    2.4609 H   0  0  0  0  0  0  0  0  0  0  0  0
   -3.9578   -1.3147    1.2082 H   0  0  0  0  0  0  0  0  0  0  0  0
   -1.6916   -4.2882    1.7437 H   0  0  0  0  0  0  0  0  0  0  0  0
   -1.3262   -5.6089   -0.4451 H   0  0  0  0  0  0  0  0  0  0  0  0
   -1.8114   -5.1486   -3.1050 H   0  0  0  0  0  0  0  0  0  0  0  0
   -2.7476   -3.4643   -4.7000 H   0  0  0  0  0  0  0  0  0  0  0  0
   -3.6644   -1.3125   -3.8513 H   0  0  0  0  0  0  0  0  0  0  0  0
   -3.6541   -0.8205   -1.4029 H   0  0  0  0  0  0  0  0  0  0  0  0
  1  2  2  0
  2  3  1  0
  3  4  1  0
  4  5  1  0
  5  6  1  0
  6  7  2  0
  7  8  1  0
  8  9  2  0
  9 10  1  0
 10 11  2  0
 11 12  1  0
 12 13  2  0
 13 14  1  0
 14 15  2  0
 15 16  1  0
 16 17  2  0
  4 18  1  0
 18 19  2  0
 18 20  1  0
 20 21  1  0
 21 22  1  0
 22 23  1  0
 23 24  2  0
 24 25  1  0
 25 26  1  0
 26 27  2  0
 27 28  1  0
 28 29  2  0
 29 30  1  0
 30 31  2  0
 20  2  1  0
 31 23  1  0
 17  5  1  0
 31 26  1  0
 11  6  1  0
 17 12  1  0
  3 32  1  0
  3 33  1  0
  4 34  1  1
  5 35  1  0
  7 36  1  0
  8 37  1  0
  9 38  1  0
 10 39  1  0
 13 40  1  0
 14 41  1  0
 15 42  1  0
 16 43  1  0
 20 44  1  1
 21 45  1  0
 21 46  1  0
 22 47  1  0
 22 48  1  0
 24 49  1  0
 25 50  1  0
 27 51  1  0
 28 52  1  0
 29 53  1  0
 30 54  1  0
M  CHG  1  20   1
M  END
>  <UniqueID>  (93) 
92

>  <SMILES>  (93) 
O=C1C[C@H](C2c3ccccc3-c3ccccc32)C(=O)[N@@H+]1CCc1c[nH]c2ccccc12

>  <Energy>  (93) 
119.32146049217539

>  <Genealogy>  (93) 
O=C1CC(C2c3ccccc3-c3ccccc32)C(=O)[NH+]1CCc1c[nH]c2ccccc12 (protonated)
O=C1C[C@H](C2c3ccccc3-c3ccccc32)C(=O)[N@@H+]1CCc1c[nH]c2ccccc12 (chirality)
O=C1C[C@H](C2c3ccccc3-c3ccccc32)C(=O)[N@@H+]1CCc1c[nH]c2ccccc12 (3D coordinates assigned)
O=C1C[C@H](C2c3ccccc3-c3ccccc32)C(=O)[N@@H+]1CCc1c[nH]c2ccccc12 (nonaromatic ring conformer: 119.32146049217539 kcal/mol)

$$$$
untitled_line_93
     RDKit          3D

 32 33  0  0  0  0  0  0  0  0999 V2000
    5.1119   -1.6881   -0.6463 C   0  0  0  0  0  0  0  0  0  0  0  0
    4.3420   -0.8344    0.2556 N   0  0  0  0  0  4  0  0  0  0  0  0
    3.0453   -0.9081    0.3871 C   0  0  0  0  0  0  0  0  0  0  0  0
    2.0907   -2.1216   -0.5530 S   0  0  0  0  0  0  0  0  0  0  0  0
    2.3813   -0.0268    1.3119 N   0  0  0  0  0  0  0  0  0  0  0  0
    0.9316    0.0148    1.4972 C   0  0  0  0  0  0  0  0  0  0  0  0
    0.2758    0.8488    0.3949 C   0  0  0  0  0  0  0  0  0  0  0  0
   -1.2112    0.8881    0.5794 C   0  0  0  0  0  0  0  0  0  0  0  0
   -1.9351    1.8479    1.2802 C   0  0  0  0  0  0  0  0  0  0  0  0
   -3.2481    1.5233    1.3052 N   0  0  0  0  0  0  0  0  0  0  0  0
   -3.3565    0.3611    0.6379 C   0  0  0  0  0  0  0  0  0  0  0  0
   -4.5159   -0.3807    0.4151 C   0  0  0  0  0  0  0  0  0  0  0  0
   -4.3968   -1.5892   -0.2956 C   0  0  0  0  0  0  0  0  0  0  0  0
   -3.1356   -2.0259   -0.7590 C   0  0  0  0  0  0  0  0  0  0  0  0
   -1.9822   -1.2575   -0.5176 C   0  0  0  0  0  0  0  0  0  0  0  0
   -2.1330   -0.0616    0.1848 C   0  0  0  0  0  0  0  0  0  0  0  0
    4.7787   -1.5349   -1.6949 H   0  0  0  0  0  0  0  0  0  0  0  0
    6.1900   -1.4301   -0.5794 H   0  0  0  0  0  0  0  0  0  0  0  0
    4.9878   -2.7547   -0.3619 H   0  0  0  0  0  0  0  0  0  0  0  0
    4.8735   -0.1296    0.8156 H   0  0  0  0  0  0  0  0  0  0  0  0
    1.9546   -1.2522   -1.6508 H   0  0  0  0  0  0  0  0  0  0  0  0
    2.9607    0.5959    1.9196 H   0  0  0  0  0  0  0  0  0  0  0  0
    0.5165   -1.0159    1.5181 H   0  0  0  0  0  0  0  0  0  0  0  0
    0.7080    0.4828    2.4812 H   0  0  0  0  0  0  0  0  0  0  0  0
    0.5092    0.4241   -0.6030 H   0  0  0  0  0  0  0  0  0  0  0  0
    0.6789    1.8842    0.4250 H   0  0  0  0  0  0  0  0  0  0  0  0
   -1.5214    2.7279    1.7554 H   0  0  0  0  0  0  0  0  0  0  0  0
   -4.0163    2.0613    1.7644 H   0  0  0  0  0  0  0  0  0  0  0  0
   -5.4768   -0.0409    0.7793 H   0  0  0  0  0  0  0  0  0  0  0  0
   -5.2769   -2.1895   -0.4858 H   0  0  0  0  0  0  0  0  0  0  0  0
   -3.0557   -2.9586   -1.3021 H   0  0  0  0  0  0  0  0  0  0  0  0
   -1.0132   -1.5877   -0.8672 H   0  0  0  0  0  0  0  0  0  0  0  0
  1  2  1  0
  2  3  2  0
  3  4  1  0
  3  5  1  0
  5  6  1  0
  6  7  1  0
  7  8  1  0
  8  9  2  0
  9 10  1  0
 10 11  1  0
 11 12  2  0
 12 13  1  0
 13 14  2  0
 14 15  1  0
 15 16  2  0
 16  8  1  0
 16 11  1  0
  1 17  1  0
  1 18  1  0
  1 19  1  0
  2 20  1  0
  4 21  1  0
  5 22  1  0
  6 23  1  0
  6 24  1  0
  7 25  1  0
  7 26  1  0
  9 27  1  0
 10 28  1  0
 12 29  1  0
 13 30  1  0
 14 31  1  0
 15 32  1  0
M  CHG  1   2   1
M  END
>  <UniqueID>  (94) 
93

>  <SMILES>  (94) 
C/[NH+]=C(\S)NCCc1c[nH]c2ccccc12

>  <Energy>  (94) 
57.42255638742722

>  <Genealogy>  (94) 
C/[NH+]=C(\S)NCCc1c[nH]c2ccccc12 (protonated)
C/[NH+]=C(\S)NCCc1c[nH]c2ccccc12 (3D coordinates assigned)
C/[NH+]=C(\S)NCCc1c[nH]c2ccccc12 (optimized conformer: 57.42255638742722 kcal/mol)

$$$$
untitled_line_94
     RDKit          3D

 46 49  0  0  0  0  0  0  0  0999 V2000
    4.8869    0.8279    0.1455 C   0  0  0  0  0  0  0  0  0  0  0  0
    3.8063    1.5184    0.7018 C   0  0  0  0  0  0  0  0  0  0  0  0
    2.5063    1.2507    0.2661 C   0  0  0  0  0  0  0  0  0  0  0  0
    2.2839    0.2927   -0.7267 C   0  0  0  0  0  0  0  0  0  0  0  0
    3.3692   -0.3928   -1.3101 C   0  0  0  0  0  0  0  0  0  0  0  0
    4.6708   -0.1291   -0.8515 C   0  0  0  0  0  0  0  0  0  0  0  0
    3.1388   -1.4228   -2.2989 N   0  0  0  0  0  4  0  0  0  0  0  0
    1.8832   -1.2100   -3.0400 C   0  0  0  0  0  0  0  0  0  0  0  0
    0.7034   -1.0382   -2.0648 C   0  0  2  0  0  0  0  0  0  0  0  0
   -0.6148   -0.7744   -2.8186 C   0  0  0  0  0  0  0  0  0  0  0  0
   -1.7492   -0.5648   -1.8943 N   0  0  0  0  0  4  0  0  0  0  0  0
   -2.0185    0.8686   -1.6709 C   0  0  0  0  0  0  0  0  0  0  0  0
   -2.9617    1.0892   -0.4785 C   0  0  0  0  0  0  0  0  0  0  0  0
   -2.2420    0.9073    0.8272 C   0  0  0  0  0  0  0  0  0  0  0  0
   -2.2188   -0.2413    1.6131 C   0  0  0  0  0  0  0  0  0  0  0  0
   -1.3999   -0.0697    2.6760 N   0  0  0  0  0  0  0  0  0  0  0  0
   -0.9008    1.1736    2.5640 C   0  0  0  0  0  0  0  0  0  0  0  0
    0.0053    1.8009    3.4181 C   0  0  0  0  0  0  0  0  0  0  0  0
    0.4076    3.1116    3.1022 C   0  0  0  0  0  0  0  0  0  0  0  0
   -0.0957    3.7569    1.9506 C   0  0  0  0  0  0  0  0  0  0  0  0
   -1.0048    3.0969    1.1036 C   0  0  0  0  0  0  0  0  0  0  0  0
   -1.3892    1.8002    1.4464 C   0  0  0  0  0  0  0  0  0  0  0  0
    0.9842    0.0317   -1.1640 O   0  0  0  0  0  0  0  0  0  0  0  0
    5.8926    1.0309    0.4904 H   0  0  0  0  0  0  0  0  0  0  0  0
    3.9758    2.2583    1.4734 H   0  0  0  0  0  0  0  0  0  0  0  0
    1.6723    1.7834    0.6997 H   0  0  0  0  0  0  0  0  0  0  0  0
    5.5144   -0.6667   -1.2658 H   0  0  0  0  0  0  0  0  0  0  0  0
    3.1041   -2.3494   -1.8133 H   0  0  0  0  0  0  0  0  0  0  0  0
    3.9279   -1.4346   -2.9868 H   0  0  0  0  0  0  0  0  0  0  0  0
    1.6942   -2.0822   -3.7046 H   0  0  0  0  0  0  0  0  0  0  0  0
    1.9770   -0.3042   -3.6813 H   0  0  0  0  0  0  0  0  0  0  0  0
    0.5984   -1.9768   -1.4763 H   0  0  0  0  0  0  0  0  0  0  0  0
   -0.4921    0.0899   -3.5113 H   0  0  0  0  0  0  0  0  0  0  0  0
   -0.8254   -1.6619   -3.4574 H   0  0  0  0  0  0  0  0  0  0  0  0
   -2.6071   -0.9931   -2.3156 H   0  0  0  0  0  0  0  0  0  0  0  0
   -1.5716   -1.0552   -0.9874 H   0  0  0  0  0  0  0  0  0  0  0  0
   -1.0768    1.4361   -1.5026 H   0  0  0  0  0  0  0  0  0  0  0  0
   -2.4978    1.2962   -2.5802 H   0  0  0  0  0  0  0  0  0  0  0  0
   -3.3661    2.1232   -0.5216 H   0  0  0  0  0  0  0  0  0  0  0  0
   -3.8247    0.3914   -0.5393 H   0  0  0  0  0  0  0  0  0  0  0  0
   -2.7589   -1.1566    1.4089 H   0  0  0  0  0  0  0  0  0  0  0  0
   -1.1900   -0.7690    3.4225 H   0  0  0  0  0  0  0  0  0  0  0  0
    0.3895    1.2963    4.2951 H   0  0  0  0  0  0  0  0  0  0  0  0
    1.1105    3.6271    3.7435 H   0  0  0  0  0  0  0  0  0  0  0  0
    0.2242    4.7635    1.7151 H   0  0  0  0  0  0  0  0  0  0  0  0
   -1.3893    3.5825    0.2163 H   0  0  0  0  0  0  0  0  0  0  0  0
  1  2  2  0
  2  3  1  0
  3  4  2  0
  4  5  1  0
  5  6  2  0
  5  7  1  0
  7  8  1  0
  8  9  1  0
  9 10  1  0
 10 11  1  0
 11 12  1  0
 12 13  1  0
 13 14  1  0
 14 15  2  0
 15 16  1  0
 16 17  1  0
 17 18  2  0
 18 19  1  0
 19 20  2  0
 20 21  1  0
 21 22  2  0
  9 23  1  0
  6  1  1  0
 22 14  1  0
 23  4  1  0
 22 17  1  0
  1 24  1  0
  2 25  1  0
  3 26  1  0
  6 27  1  0
  7 28  1  0
  7 29  1  0
  8 30  1  0
  8 31  1  0
  9 32  1  1
 10 33  1  0
 10 34  1  0
 11 35  1  0
 11 36  1  0
 12 37  1  0
 12 38  1  0
 13 39  1  0
 13 40  1  0
 15 41  1  0
 16 42  1  0
 18 43  1  0
 19 44  1  0
 20 45  1  0
 21 46  1  0
M  CHG  2   7   1  11   1
M  END
>  <UniqueID>  (95) 
94

>  <SMILES>  (95) 
c1ccc2c(c1)[NH2+]C[C@H](C[NH2+]CCc1c[nH]c3ccccc13)O2

>  <Energy>  (95) 
80.37765587703586

>  <Genealogy>  (95) 
c1ccc2c(c1)[NH2+]CC(C[NH2+]CCc1c[nH]c3ccccc13)O2 (protonated)
c1ccc2c(c1)[NH2+]C[C@H](C[NH2+]CCc1c[nH]c3ccccc13)O2 (chirality)
c1ccc2c(c1)[NH2+]C[C@H](C[NH2+]CCc1c[nH]c3ccccc13)O2 (3D coordinates assigned)
c1ccc2c(c1)[NH2+]C[C@H](C[NH2+]CCc1c[nH]c3ccccc13)O2 (nonaromatic ring conformer: 80.37765587703586 kcal/mol)

$$$$
untitled_line_95
     RDKit          3D

 39 41  0  0  0  0  0  0  0  0999 V2000
   -3.0599    0.1666    2.7412 N   0  0  0  0  0  4  0  0  0  0  0  0
   -3.5645   -0.1202    1.4235 C   0  0  0  0  0  0  0  0  0  0  0  0
   -4.7276   -0.9006    1.2822 C   0  0  0  0  0  0  0  0  0  0  0  0
   -5.2290   -1.2089    0.0172 C   0  0  0  0  0  0  0  0  0  0  0  0
   -4.5839   -0.7368   -1.1241 C   0  0  0  0  0  0  0  0  0  0  0  0
   -3.4386    0.0521   -1.0057 C   0  0  0  0  0  0  0  0  0  0  0  0
   -2.9177    0.3772    0.2604 C   0  0  0  0  0  0  0  0  0  0  0  0
   -1.7165    1.2432    0.3401 C   0  0  0  0  0  0  0  0  0  0  0  0
   -1.6403    2.1290    1.2345 O   0  0  0  0  0  0  0  0  0  0  0  0
   -0.6445    1.0897   -0.6017 N   0  0  0  0  0  0  0  0  0  0  0  0
    0.5128    1.9860   -0.5901 C   0  0  0  0  0  0  0  0  0  0  0  0
    1.5581    1.5726   -1.6327 C   0  0  0  0  0  0  0  0  0  0  0  0
    2.1844    0.2517   -1.2894 C   0  0  0  0  0  0  0  0  0  0  0  0
    1.8628   -0.9879   -1.8349 C   0  0  0  0  0  0  0  0  0  0  0  0
    2.5901   -1.9653   -1.2471 N   0  0  0  0  0  0  0  0  0  0  0  0
    3.3619   -1.3547   -0.3312 C   0  0  0  0  0  0  0  0  0  0  0  0
    4.2751   -1.9510    0.5373 C   0  0  0  0  0  0  0  0  0  0  0  0
    4.9728   -1.1179    1.4312 C   0  0  0  0  0  0  0  0  0  0  0  0
    4.7432    0.2760    1.4380 C   0  0  0  0  0  0  0  0  0  0  0  0
    3.8145    0.8500    0.5508 C   0  0  0  0  0  0  0  0  0  0  0  0
    3.1403   -0.0012   -0.3251 C   0  0  0  0  0  0  0  0  0  0  0  0
   -3.4920   -0.4632    3.4556 H   0  0  0  0  0  0  0  0  0  0  0  0
   -2.0262    0.0135    2.7696 H   0  0  0  0  0  0  0  0  0  0  0  0
   -3.2868    1.1563    2.9888 H   0  0  0  0  0  0  0  0  0  0  0  0
   -5.2444   -1.2775    2.1560 H   0  0  0  0  0  0  0  0  0  0  0  0
   -6.1210   -1.8146   -0.0781 H   0  0  0  0  0  0  0  0  0  0  0  0
   -4.9778   -0.9740   -2.1040 H   0  0  0  0  0  0  0  0  0  0  0  0
   -2.9741    0.4299   -1.9080 H   0  0  0  0  0  0  0  0  0  0  0  0
   -0.6841    0.3028   -1.2879 H   0  0  0  0  0  0  0  0  0  0  0  0
    0.1715    3.0189   -0.8169 H   0  0  0  0  0  0  0  0  0  0  0  0
    0.9740    1.9886    0.4217 H   0  0  0  0  0  0  0  0  0  0  0  0
    1.0859    1.5192   -2.6377 H   0  0  0  0  0  0  0  0  0  0  0  0
    2.3530    2.3475   -1.6774 H   0  0  0  0  0  0  0  0  0  0  0  0
    1.1305   -1.1649   -2.6119 H   0  0  0  0  0  0  0  0  0  0  0  0
    2.5496   -2.9872   -1.4581 H   0  0  0  0  0  0  0  0  0  0  0  0
    4.4417   -3.0204    0.5270 H   0  0  0  0  0  0  0  0  0  0  0  0
    5.6889   -1.5484    2.1190 H   0  0  0  0  0  0  0  0  0  0  0  0
    5.2847    0.9068    2.1309 H   0  0  0  0  0  0  0  0  0  0  0  0
    3.6328    1.9168    0.5514 H   0  0  0  0  0  0  0  0  0  0  0  0
  1  2  1  0
  2  3  2  0
  3  4  1  0
  4  5  2  0
  5  6  1  0
  6  7  2  0
  7  8  1  0
  8  9  2  0
  8 10  1  0
 10 11  1  0
 11 12  1  0
 12 13  1  0
 13 14  2  0
 14 15  1  0
 15 16  1  0
 16 17  2  0
 17 18  1  0
 18 19  2  0
 19 20  1  0
 20 21  2  0
  7  2  1  0
 21 13  1  0
 21 16  1  0
  1 22  1  0
  1 23  1  0
  1 24  1  0
  3 25  1  0
  4 26  1  0
  5 27  1  0
  6 28  1  0
 10 29  1  0
 11 30  1  0
 11 31  1  0
 12 32  1  0
 12 33  1  0
 14 34  1  0
 15 35  1  0
 17 36  1  0
 18 37  1  0
 19 38  1  0
 20 39  1  0
M  CHG  1   1   1
M  END
>  <UniqueID>  (96) 
95

>  <SMILES>  (96) 
[NH3+]c1ccccc1C(=O)NCCc1c[nH]c2ccccc12

>  <Energy>  (96) 
75.19505419977017

>  <Genealogy>  (96) 
[NH3+]c1ccccc1C(=O)NCCc1c[nH]c2ccccc12 (protonated)
[NH3+]c1ccccc1C(=O)NCCc1c[nH]c2ccccc12 (3D coordinates assigned)
[NH3+]c1ccccc1C(=O)NCCc1c[nH]c2ccccc12 (optimized conformer: 75.19505419977017 kcal/mol)

$$$$
untitled_line_96
     RDKit          3D

 38 40  0  0  0  0  0  0  0  0999 V2000
    0.3950   -2.3397   -5.5727 F   0  0  0  0  0  0  0  0  0  0  0  0
   -0.1268   -2.1377   -4.3378 C   0  0  0  0  0  0  0  0  0  0  0  0
   -1.4938   -1.8844   -4.1901 C   0  0  0  0  0  0  0  0  0  0  0  0
   -2.0312   -1.6667   -2.9185 C   0  0  0  0  0  0  0  0  0  0  0  0
   -1.2042   -1.7063   -1.7919 C   0  0  0  0  0  0  0  0  0  0  0  0
    0.1678   -1.9753   -1.9302 C   0  0  0  0  0  0  0  0  0  0  0  0
    1.0679   -1.9763   -0.7212 C   0  0  0  0  0  0  0  0  0  0  0  0
    1.5711   -0.6187   -0.4557 N   0  0  0  0  0  4  0  0  0  0  0  0
    2.4988   -0.5778    0.6917 C   0  0  0  0  0  0  0  0  0  0  0  0
    1.7901   -0.6496    2.0580 C   0  0  0  0  0  0  0  0  0  0  0  0
    0.8986    0.5362    2.2942 C   0  0  0  0  0  0  0  0  0  0  0  0
    1.3122    1.8367    2.5679 C   0  0  0  0  0  0  0  0  0  0  0  0
    0.2458    2.6643    2.6503 N   0  0  0  0  0  0  0  0  0  0  0  0
   -0.8365    1.8998    2.4239 C   0  0  0  0  0  0  0  0  0  0  0  0
   -2.1679    2.3123    2.3855 C   0  0  0  0  0  0  0  0  0  0  0  0
   -3.1491    1.3427    2.1098 C   0  0  0  0  0  0  0  0  0  0  0  0
   -2.7820   -0.0019    1.8816 C   0  0  0  0  0  0  0  0  0  0  0  0
   -1.4308   -0.3896    1.9275 C   0  0  0  0  0  0  0  0  0  0  0  0
   -0.4794    0.5940    2.2015 C   0  0  0  0  0  0  0  0  0  0  0  0
    0.7037   -2.1778   -3.2129 C   0  0  0  0  0  0  0  0  0  0  0  0
   -2.1363   -1.8517   -5.0606 H   0  0  0  0  0  0  0  0  0  0  0  0
   -3.0883   -1.4634   -2.8060 H   0  0  0  0  0  0  0  0  0  0  0  0
   -1.6325   -1.5267   -0.8144 H   0  0  0  0  0  0  0  0  0  0  0  0
    1.9177   -2.6748   -0.8939 H   0  0  0  0  0  0  0  0  0  0  0  0
    0.4986   -2.3614    0.1507 H   0  0  0  0  0  0  0  0  0  0  0  0
    2.0965   -0.2913   -1.3006 H   0  0  0  0  0  0  0  0  0  0  0  0
    0.7707    0.0380   -0.3063 H   0  0  0  0  0  0  0  0  0  0  0  0
    3.2380   -1.4069    0.6218 H   0  0  0  0  0  0  0  0  0  0  0  0
    3.0859    0.3672    0.6509 H   0  0  0  0  0  0  0  0  0  0  0  0
    2.5655   -0.6632    2.8537 H   0  0  0  0  0  0  0  0  0  0  0  0
    1.2195   -1.5943    2.1595 H   0  0  0  0  0  0  0  0  0  0  0  0
    2.3381    2.1606    2.6850 H   0  0  0  0  0  0  0  0  0  0  0  0
    0.2649    3.6914    2.8375 H   0  0  0  0  0  0  0  0  0  0  0  0
   -2.4390    3.3458    2.5579 H   0  0  0  0  0  0  0  0  0  0  0  0
   -4.1919    1.6294    2.0711 H   0  0  0  0  0  0  0  0  0  0  0  0
   -3.5452   -0.7392    1.6693 H   0  0  0  0  0  0  0  0  0  0  0  0
   -1.1476   -1.4187    1.7553 H   0  0  0  0  0  0  0  0  0  0  0  0
    1.7630   -2.3643   -3.3401 H   0  0  0  0  0  0  0  0  0  0  0  0
  1  2  1  0
  2  3  2  0
  3  4  1  0
  4  5  2  0
  5  6  1  0
  6  7  1  0
  7  8  1  0
  8  9  1  0
  9 10  1  0
 10 11  1  0
 11 12  2  0
 12 13  1  0
 13 14  1  0
 14 15  2  0
 15 16  1  0
 16 17  2  0
 17 18  1  0
 18 19  2  0
  6 20  2  0
 20  2  1  0
 19 11  1  0
 19 14  1  0
  3 21  1  0
  4 22  1  0
  5 23  1  0
  7 24  1  0
  7 25  1  0
  8 26  1  0
  8 27  1  0
  9 28  1  0
  9 29  1  0
 10 30  1  0
 10 31  1  0
 12 32  1  0
 13 33  1  0
 15 34  1  0
 16 35  1  0
 17 36  1  0
 18 37  1  0
 20 38  1  0
M  CHG  1   8   1
M  END
>  <UniqueID>  (97) 
96

>  <SMILES>  (97) 
Fc1cccc(C[NH2+]CCc2c[nH]c3ccccc23)c1

>  <Energy>  (97) 
69.63827882174567

>  <Genealogy>  (97) 
Fc1cccc(C[NH2+]CCc2c[nH]c3ccccc23)c1 (protonated)
Fc1cccc(C[NH2+]CCc2c[nH]c3ccccc23)c1 (3D coordinates assigned)
Fc1cccc(C[NH2+]CCc2c[nH]c3ccccc23)c1 (optimized conformer: 69.63827882174567 kcal/mol)

$$$$
untitled_line_97
     RDKit          3D

 62 65  0  0  0  0  0  0  0  0999 V2000
    3.0245    1.8924    1.0865 C   0  0  0  0  0  0  0  0  0  0  0  0
    2.2782    1.4618   -0.2004 C   0  0  0  0  0  0  0  0  0  0  0  0
    1.3804    2.6493   -0.6247 C   0  0  0  0  0  0  0  0  0  0  0  0
    3.3282    1.1950   -1.3305 C   0  0  0  0  0  0  0  0  0  0  0  0
    4.2084   -0.0036   -1.0912 C   0  0  0  0  0  0  0  0  0  0  0  0
    3.9383   -1.3174   -1.4663 C   0  0  0  0  0  0  0  0  0  0  0  0
    4.9464   -2.1352   -1.0882 N   0  0  0  0  0  0  0  0  0  0  0  0
    5.8551   -1.3505   -0.4846 C   0  0  0  0  0  0  0  0  0  0  0  0
    7.0762   -1.7418    0.0628 C   0  0  0  0  0  0  0  0  0  0  0  0
    7.8890   -0.7473    0.6360 C   0  0  0  0  0  0  0  0  0  0  0  0
    7.4705    0.6015    0.6443 C   0  0  0  0  0  0  0  0  0  0  0  0
    6.2341    0.9679    0.0824 C   0  0  0  0  0  0  0  0  0  0  0  0
    5.4440   -0.0416   -0.4704 C   0  0  0  0  0  0  0  0  0  0  0  0
    1.4473    0.2620    0.1164 N   0  0  0  0  0  4  0  0  0  0  0  0
    0.5984   -0.2542   -0.9897 C   0  0  0  0  0  0  0  0  0  0  0  0
   -0.9108    0.0098   -0.7641 C   0  0  1  0  0  0  0  0  0  0  0  0
   -1.6105   -0.1068   -1.9785 O   0  0  0  0  0  0  0  0  0  0  0  0
   -1.5137   -0.9391    0.2846 C   0  0  0  0  0  0  0  0  0  0  0  0
   -2.8987   -0.6449    0.4445 O   0  0  0  0  0  0  0  0  0  0  0  0
   -3.7731   -1.3352    1.2995 C   0  0  0  0  0  0  0  0  0  0  0  0
   -3.3225   -2.3785    2.1334 C   0  0  0  0  0  0  0  0  0  0  0  0
   -4.2077   -3.0254    2.9980 C   0  0  0  0  0  0  0  0  0  0  0  0
   -5.5477   -2.6424    3.0435 C   0  0  0  0  0  0  0  0  0  0  0  0
   -6.0101   -1.6149    2.2198 C   0  0  0  0  0  0  0  0  0  0  0  0
   -5.1345   -0.9587    1.3364 C   0  0  0  0  0  0  0  0  0  0  0  0
   -5.6540    0.1202    0.4607 C   0  0  0  0  0  0  0  0  0  0  0  0
   -5.3873    0.1127   -0.9208 C   0  0  0  0  0  0  0  0  0  0  0  0
   -5.8810    1.1315   -1.7411 C   0  0  0  0  0  0  0  0  0  0  0  0
   -6.6492    2.1619   -1.1933 C   0  0  0  0  0  0  0  0  0  0  0  0
   -6.9275    2.1738    0.1757 C   0  0  0  0  0  0  0  0  0  0  0  0
   -6.4355    1.1575    1.0005 C   0  0  0  0  0  0  0  0  0  0  0  0
    3.6809    2.7682    0.8943 H   0  0  0  0  0  0  0  0  0  0  0  0
    3.6466    1.0615    1.4802 H   0  0  0  0  0  0  0  0  0  0  0  0
    2.3020    2.1748    1.8824 H   0  0  0  0  0  0  0  0  0  0  0  0
    0.6109    2.8538    0.1503 H   0  0  0  0  0  0  0  0  0  0  0  0
    0.8637    2.4493   -1.5859 H   0  0  0  0  0  0  0  0  0  0  0  0
    1.9881    3.5702   -0.7602 H   0  0  0  0  0  0  0  0  0  0  0  0
    2.8350    1.0733   -2.3162 H   0  0  0  0  0  0  0  0  0  0  0  0
    3.9764    2.0905   -1.4490 H   0  0  0  0  0  0  0  0  0  0  0  0
    3.0564   -1.6549   -1.9934 H   0  0  0  0  0  0  0  0  0  0  0  0
    5.0064   -3.1660   -1.2438 H   0  0  0  0  0  0  0  0  0  0  0  0
    7.3913   -2.7772    0.0458 H   0  0  0  0  0  0  0  0  0  0  0  0
    8.8431   -1.0170    1.0696 H   0  0  0  0  0  0  0  0  0  0  0  0
    8.1064    1.3591    1.0833 H   0  0  0  0  0  0  0  0  0  0  0  0
    5.9153    2.0012    0.0794 H   0  0  0  0  0  0  0  0  0  0  0  0
    2.0743   -0.5126    0.4359 H   0  0  0  0  0  0  0  0  0  0  0  0
    0.8528    0.4861    0.9479 H   0  0  0  0  0  0  0  0  0  0  0  0
    0.8827    0.1785   -1.9679 H   0  0  0  0  0  0  0  0  0  0  0  0
    0.7528   -1.3514   -1.1000 H   0  0  0  0  0  0  0  0  0  0  0  0
   -1.0440    1.0528   -0.4057 H   0  0  0  0  0  0  0  0  0  0  0  0
   -1.4856   -1.0353   -2.3087 H   0  0  0  0  0  0  0  0  0  0  0  0
   -1.3948   -1.9928   -0.0505 H   0  0  0  0  0  0  0  0  0  0  0  0
   -0.9991   -0.8099    1.2599 H   0  0  0  0  0  0  0  0  0  0  0  0
   -2.2878   -2.6920    2.1271 H   0  0  0  0  0  0  0  0  0  0  0  0
   -3.8527   -3.8237    3.6370 H   0  0  0  0  0  0  0  0  0  0  0  0
   -6.2309   -3.1455    3.7156 H   0  0  0  0  0  0  0  0  0  0  0  0
   -7.0575   -1.3414    2.2595 H   0  0  0  0  0  0  0  0  0  0  0  0
   -4.8092   -0.6876   -1.3661 H   0  0  0  0  0  0  0  0  0  0  0  0
   -5.6714    1.1197   -2.8029 H   0  0  0  0  0  0  0  0  0  0  0  0
   -7.0310    2.9494   -1.8301 H   0  0  0  0  0  0  0  0  0  0  0  0
   -7.5235    2.9722    0.5988 H   0  0  0  0  0  0  0  0  0  0  0  0
   -6.6528    1.1871    2.0611 H   0  0  0  0  0  0  0  0  0  0  0  0
  1  2  1  0
  2  3  1  0
  2  4  1  0
  4  5  1  0
  5  6  2  0
  6  7  1  0
  7  8  1  0
  8  9  2  0
  9 10  1  0
 10 11  2  0
 11 12  1  0
 12 13  2  0
  2 14  1  0
 14 15  1  0
 15 16  1  0
 16 17  1  0
 16 18  1  0
 18 19  1  0
 19 20  1  0
 20 21  2  0
 21 22  1  0
 22 23  2  0
 23 24  1  0
 24 25  2  0
 25 26  1  0
 26 27  2  0
 27 28  1  0
 28 29  2  0
 29 30  1  0
 30 31  2  0
 13  5  1  0
 25 20  1  0
 31 26  1  0
 13  8  1  0
  1 32  1  0
  1 33  1  0
  1 34  1  0
  3 35  1  0
  3 36  1  0
  3 37  1  0
  4 38  1  0
  4 39  1  0
  6 40  1  0
  7 41  1  0
  9 42  1  0
 10 43  1  0
 11 44  1  0
 12 45  1  0
 14 46  1  0
 14 47  1  0
 15 48  1  0
 15 49  1  0
 16 50  1  1
 17 51  1  0
 18 52  1  0
 18 53  1  0
 21 54  1  0
 22 55  1  0
 23 56  1  0
 24 57  1  0
 27 58  1  0
 28 59  1  0
 29 60  1  0
 30 61  1  0
 31 62  1  0
M  CHG  1  14   1
M  END
>  <UniqueID>  (98) 
97

>  <SMILES>  (98) 
CC(C)(Cc1c[nH]c2ccccc12)[NH2+]C[C@@H](O)COc1ccccc1-c1ccccc1

>  <Energy>  (98) 
106.60085456422783

>  <Genealogy>  (98) 
CC(C)(Cc1c[nH]c2ccccc12)[NH2+]CC(O)COc1ccccc1-c1ccccc1 (protonated)
CC(C)(Cc1c[nH]c2ccccc12)[NH2+]C[C@@H](O)COc1ccccc1-c1ccccc1 (chirality)
CC(C)(Cc1c[nH]c2ccccc12)[NH2+]C[C@@H](O)COc1ccccc1-c1ccccc1 (3D coordinates assigned)
CC(C)(Cc1c[nH]c2ccccc12)[NH2+]C[C@@H](O)COc1ccccc1-c1ccccc1 (optimized conformer: 106.60085456422783 kcal/mol)

$$$$
untitled_line_98
     RDKit          3D

 36 38  0  0  0  0  0  0  0  0999 V2000
   -2.5485   -0.3349   -2.4456 O   0  0  0  0  0  0  0  0  0  0  0  0
   -1.5250    0.3921   -2.3186 C   0  0  0  0  0  0  0  0  0  0  0  0
   -0.3061   -0.1830   -1.8249 N   0  0  0  0  0  0  0  0  0  0  0  0
   -0.2825   -1.5220   -1.2343 C   0  0  0  0  0  0  0  0  0  0  0  0
    1.0997   -1.8618   -0.6647 C   0  0  0  0  0  0  0  0  0  0  0  0
    1.4492   -0.9699    0.4918 C   0  0  0  0  0  0  0  0  0  0  0  0
    2.2561    0.1638    0.4530 C   0  0  0  0  0  0  0  0  0  0  0  0
    2.2941    0.7582    1.6674 N   0  0  0  0  0  0  0  0  0  0  0  0
    1.5119    0.0150    2.4695 C   0  0  0  0  0  0  0  0  0  0  0  0
    1.2257    0.2401    3.8154 C   0  0  0  0  0  0  0  0  0  0  0  0
    0.3617   -0.6617    4.4635 C   0  0  0  0  0  0  0  0  0  0  0  0
   -0.1924   -1.7539    3.7594 C   0  0  0  0  0  0  0  0  0  0  0  0
    0.1130   -1.9552    2.4009 C   0  0  0  0  0  0  0  0  0  0  0  0
    0.9753   -1.0466    1.7868 C   0  0  0  0  0  0  0  0  0  0  0  0
   -1.5979    1.8243   -2.6945 C   0  0  0  0  0  0  0  0  0  0  0  0
   -2.5718    2.2636   -3.6103 C   0  0  0  0  0  0  0  0  0  0  0  0
   -2.6531    3.6131   -3.9667 C   0  0  0  0  0  0  0  0  0  0  0  0
   -1.7699    4.5408   -3.4077 C   0  0  0  0  0  0  0  0  0  0  0  0
   -1.8752    6.2338   -3.8544 Cl  0  0  0  0  0  0  0  0  0  0  0  0
   -0.8069    4.1184   -2.4870 C   0  0  0  0  0  0  0  0  0  0  0  0
   -0.7212    2.7695   -2.1284 C   0  0  0  0  0  0  0  0  0  0  0  0
    0.5862    0.3506   -1.9247 H   0  0  0  0  0  0  0  0  0  0  0  0
   -1.0434   -1.5861   -0.4260 H   0  0  0  0  0  0  0  0  0  0  0  0
   -0.5434   -2.2680   -2.0154 H   0  0  0  0  0  0  0  0  0  0  0  0
    1.1019   -2.9182   -0.3206 H   0  0  0  0  0  0  0  0  0  0  0  0
    1.8686   -1.7677   -1.4619 H   0  0  0  0  0  0  0  0  0  0  0  0
    2.7764    0.5388   -0.4187 H   0  0  0  0  0  0  0  0  0  0  0  0
    2.8162    1.6257    1.9226 H   0  0  0  0  0  0  0  0  0  0  0  0
    1.6515    1.0823    4.3452 H   0  0  0  0  0  0  0  0  0  0  0  0
    0.1185   -0.5161    5.5080 H   0  0  0  0  0  0  0  0  0  0  0  0
   -0.8572   -2.4399    4.2678 H   0  0  0  0  0  0  0  0  0  0  0  0
   -0.3095   -2.7885    1.8548 H   0  0  0  0  0  0  0  0  0  0  0  0
   -3.2638    1.5616   -4.0591 H   0  0  0  0  0  0  0  0  0  0  0  0
   -3.4032    3.9360   -4.6774 H   0  0  0  0  0  0  0  0  0  0  0  0
   -0.1281    4.8353   -2.0430 H   0  0  0  0  0  0  0  0  0  0  0  0
    0.0148    2.4777   -1.3911 H   0  0  0  0  0  0  0  0  0  0  0  0
  1  2  2  0
  2  3  1  0
  3  4  1  0
  4  5  1  0
  5  6  1  0
  6  7  2  0
  7  8  1  0
  8  9  1  0
  9 10  2  0
 10 11  1  0
 11 12  2  0
 12 13  1  0
 13 14  2  0
  2 15  1  0
 15 16  2  0
 16 17  1  0
 17 18  2  0
 18 19  1  0
 18 20  1  0
 20 21  2  0
 14  6  1  0
 21 15  1  0
 14  9  1  0
  3 22  1  0
  4 23  1  0
  4 24  1  0
  5 25  1  0
  5 26  1  0
  7 27  1  0
  8 28  1  0
 10 29  1  0
 11 30  1  0
 12 31  1  0
 13 32  1  0
 16 33  1  0
 17 34  1  0
 20 35  1  0
 21 36  1  0
M  END
>  <UniqueID>  (99) 
98

>  <SMILES>  (99) 
O=C(NCCc1c[nH]c2ccccc12)c1ccc(Cl)cc1

>  <Energy>  (99) 
68.44776227607588

>  <Genealogy>  (99) 
O=C(NCCc1c[nH]c2ccccc12)c1ccc(Cl)cc1 (3D coordinates assigned)
O=C(NCCc1c[nH]c2ccccc12)c1ccc(Cl)cc1 (optimized conformer: 68.44776227607588 kcal/mol)

$$$$
untitled_line_99
     RDKit          3D

 46 48  0  0  0  0  0  0  0  0999 V2000
   -7.1846    1.3145    1.1178 C   0  0  0  0  0  0  0  0  0  0  0  0
   -6.3362    0.9406    0.0371 O   0  0  0  0  0  0  0  0  0  0  0  0
   -5.0191    0.4769    0.1837 C   0  0  0  0  0  0  0  0  0  0  0  0
   -4.4110    0.3416    1.4463 C   0  0  0  0  0  0  0  0  0  0  0  0
   -3.0995   -0.1239    1.5527 C   0  0  0  0  0  0  0  0  0  0  0  0
   -2.3771   -0.4734    0.4046 C   0  0  0  0  0  0  0  0  0  0  0  0
   -0.9480   -0.9392    0.5196 C   0  0  0  0  0  0  0  0  0  0  0  0
   -0.0275    0.2049    0.4493 N   0  0  0  0  0  4  0  0  0  0  0  0
    1.3681   -0.2450    0.5576 C   0  0  0  0  0  0  0  0  0  0  0  0
    2.3301    0.9465    0.4827 C   0  0  0  0  0  0  0  0  0  0  0  0
    3.7524    0.4836    0.5874 C   0  0  0  0  0  0  0  0  0  0  0  0
    4.5125    0.3953    1.7498 C   0  0  0  0  0  0  0  0  0  0  0  0
    5.7277   -0.1342    1.4796 N   0  0  0  0  0  0  0  0  0  0  0  0
    5.7356   -0.3926    0.1602 C   0  0  0  0  0  0  0  0  0  0  0  0
    6.7678   -0.9637   -0.5831 C   0  0  0  0  0  0  0  0  0  0  0  0
    6.5532   -1.1660   -1.9589 C   0  0  0  0  0  0  0  0  0  0  0  0
    5.3246   -0.8009   -2.5532 C   0  0  0  0  0  0  0  0  0  0  0  0
    4.2998   -0.2284   -1.7778 C   0  0  0  0  0  0  0  0  0  0  0  0
    4.5446   -0.0347   -0.4180 C   0  0  0  0  0  0  0  0  0  0  0  0
   -2.9731   -0.3258   -0.8564 C   0  0  0  0  0  0  0  0  0  0  0  0
   -4.2962    0.1442   -0.9729 C   0  0  0  0  0  0  0  0  0  0  0  0
   -4.9258    0.2963   -2.2186 O   0  0  0  0  0  0  0  0  0  0  0  0
   -4.3173    0.0018   -3.4719 C   0  0  0  0  0  0  0  0  0  0  0  0
   -6.7353    2.1594    1.6813 H   0  0  0  0  0  0  0  0  0  0  0  0
   -7.3479    0.4478    1.7926 H   0  0  0  0  0  0  0  0  0  0  0  0
   -8.1650    1.6392    0.7132 H   0  0  0  0  0  0  0  0  0  0  0  0
   -4.9428    0.5974    2.3524 H   0  0  0  0  0  0  0  0  0  0  0  0
   -2.6459   -0.2112    2.5324 H   0  0  0  0  0  0  0  0  0  0  0  0
   -0.7278   -1.6604   -0.3000 H   0  0  0  0  0  0  0  0  0  0  0  0
   -0.8117   -1.4830    1.4820 H   0  0  0  0  0  0  0  0  0  0  0  0
   -0.2391    0.8656    1.2345 H   0  0  0  0  0  0  0  0  0  0  0  0
   -0.1606    0.6982   -0.4654 H   0  0  0  0  0  0  0  0  0  0  0  0
    1.6027   -0.9523   -0.2705 H   0  0  0  0  0  0  0  0  0  0  0  0
    1.5225   -0.7725    1.5266 H   0  0  0  0  0  0  0  0  0  0  0  0
    2.1891    1.4869   -0.4779 H   0  0  0  0  0  0  0  0  0  0  0  0
    2.1130    1.6560    1.3103 H   0  0  0  0  0  0  0  0  0  0  0  0
    4.1891    0.6913    2.7393 H   0  0  0  0  0  0  0  0  0  0  0  0
    6.4954   -0.3177    2.1632 H   0  0  0  0  0  0  0  0  0  0  0  0
    7.7033   -1.2459   -0.1177 H   0  0  0  0  0  0  0  0  0  0  0  0
    7.3336   -1.6072   -2.5651 H   0  0  0  0  0  0  0  0  0  0  0  0
    5.1697   -0.9643   -3.6117 H   0  0  0  0  0  0  0  0  0  0  0  0
    3.3546    0.0496   -2.2255 H   0  0  0  0  0  0  0  0  0  0  0  0
   -2.4002   -0.5767   -1.7391 H   0  0  0  0  0  0  0  0  0  0  0  0
   -4.0355   -1.0714   -3.5169 H   0  0  0  0  0  0  0  0  0  0  0  0
   -5.0417    0.2129   -4.2849 H   0  0  0  0  0  0  0  0  0  0  0  0
   -3.4207    0.6400   -3.6205 H   0  0  0  0  0  0  0  0  0  0  0  0
  1  2  1  0
  2  3  1  0
  3  4  2  0
  4  5  1  0
  5  6  2  0
  6  7  1  0
  7  8  1  0
  8  9  1  0
  9 10  1  0
 10 11  1  0
 11 12  2  0
 12 13  1  0
 13 14  1  0
 14 15  2  0
 15 16  1  0
 16 17  2  0
 17 18  1  0
 18 19  2  0
  6 20  1  0
 20 21  2  0
 21 22  1  0
 22 23  1  0
 21  3  1  0
 19 11  1  0
 19 14  1  0
  1 24  1  0
  1 25  1  0
  1 26  1  0
  4 27  1  0
  5 28  1  0
  7 29  1  0
  7 30  1  0
  8 31  1  0
  8 32  1  0
  9 33  1  0
  9 34  1  0
 10 35  1  0
 10 36  1  0
 12 37  1  0
 13 38  1  0
 15 39  1  0
 16 40  1  0
 17 41  1  0
 18 42  1  0
 20 43  1  0
 23 44  1  0
 23 45  1  0
 23 46  1  0
M  CHG  1   8   1
M  END
>  <UniqueID>  (100) 
99

>  <SMILES>  (100) 
COc1ccc(C[NH2+]CCc2c[nH]c3ccccc23)cc1OC

>  <Energy>  (100) 
74.99800909131851

>  <Genealogy>  (100) 
COc1ccc(C[NH2+]CCc2c[nH]c3ccccc23)cc1OC (protonated)
COc1ccc(C[NH2+]CCc2c[nH]c3ccccc23)cc1OC (3D coordinates assigned)
COc1ccc(C[NH2+]CCc2c[nH]c3ccccc23)cc1OC (optimized conformer: 74.99800909131851 kcal/mol)

$$$$
untitled_line_100
     RDKit          3D

 42 43  0  0  0  0  0  0  0  0999 V2000
    4.8241   -1.5556    0.1021 C   0  0  0  0  0  0  0  0  0  0  0  0
    4.0942   -0.5596   -0.8034 C   0  0  0  0  0  0  0  0  0  0  0  0
    3.8604    0.8388   -0.1729 C   0  0  2  0  0  0  0  0  0  0  0  0
    5.1905    1.5733    0.0649 C   0  0  0  0  0  0  0  0  0  0  0  0
    3.0084    0.8012    1.1296 C   0  0  1  0  0  0  0  0  0  0  0  0
    2.7600    2.0977    1.6156 O   0  0  0  0  0  0  0  0  0  0  0  0
    1.7016    0.0655    0.9499 C   0  0  0  0  0  0  0  0  0  0  0  0
    1.4759   -0.9645    1.6419 O   0  0  0  0  0  0  0  0  0  0  0  0
    0.7247    0.5227    0.0013 N   0  0  0  0  0  0  0  0  0  0  0  0
   -0.5513   -0.1600   -0.2003 C   0  0  0  0  0  0  0  0  0  0  0  0
   -1.5107    0.1496    0.9508 C   0  0  0  0  0  0  0  0  0  0  0  0
   -2.8307   -0.5265    0.7321 C   0  0  0  0  0  0  0  0  0  0  0  0
   -3.2082   -1.7799    1.2044 C   0  0  0  0  0  0  0  0  0  0  0  0
   -4.4414   -2.1028    0.7517 N   0  0  0  0  0  0  0  0  0  0  0  0
   -4.8391   -1.0703   -0.0123 C   0  0  0  0  0  0  0  0  0  0  0  0
   -6.0383   -0.9504   -0.7134 C   0  0  0  0  0  0  0  0  0  0  0  0
   -6.2412    0.2158   -1.4741 C   0  0  0  0  0  0  0  0  0  0  0  0
   -5.2509    1.2223   -1.5197 C   0  0  0  0  0  0  0  0  0  0  0  0
   -4.0492    1.0730   -0.8035 C   0  0  0  0  0  0  0  0  0  0  0  0
   -3.8796   -0.0911   -0.0537 C   0  0  0  0  0  0  0  0  0  0  0  0
    4.9725   -2.5078   -0.4495 H   0  0  0  0  0  0  0  0  0  0  0  0
    4.2275   -1.7789    1.0100 H   0  0  0  0  0  0  0  0  0  0  0  0
    5.8222   -1.1708    0.3950 H   0  0  0  0  0  0  0  0  0  0  0  0
    3.1186   -1.0007   -1.1011 H   0  0  0  0  0  0  0  0  0  0  0  0
    4.6816   -0.4409   -1.7400 H   0  0  0  0  0  0  0  0  0  0  0  0
    3.3062    1.4334   -0.9323 H   0  0  0  0  0  0  0  0  0  0  0  0
    4.9995    2.6387    0.3137 H   0  0  0  0  0  0  0  0  0  0  0  0
    5.8183    1.5472   -0.8512 H   0  0  0  0  0  0  0  0  0  0  0  0
    5.7558    1.1163    0.9040 H   0  0  0  0  0  0  0  0  0  0  0  0
    3.5964    0.2759    1.9130 H   0  0  0  0  0  0  0  0  0  0  0  0
    2.3080    2.6129    0.8976 H   0  0  0  0  0  0  0  0  0  0  0  0
    0.9467    1.3378   -0.6126 H   0  0  0  0  0  0  0  0  0  0  0  0
   -0.3830   -1.2562   -0.2841 H   0  0  0  0  0  0  0  0  0  0  0  0
   -1.0017    0.1904   -1.1551 H   0  0  0  0  0  0  0  0  0  0  0  0
   -1.6642    1.2476    1.0250 H   0  0  0  0  0  0  0  0  0  0  0  0
   -1.0774   -0.1995    1.9122 H   0  0  0  0  0  0  0  0  0  0  0  0
   -2.6083   -2.4238    1.8344 H   0  0  0  0  0  0  0  0  0  0  0  0
   -4.9677   -2.9835    0.9460 H   0  0  0  0  0  0  0  0  0  0  0  0
   -6.7884   -1.7297   -0.6774 H   0  0  0  0  0  0  0  0  0  0  0  0
   -7.1610    0.3409   -2.0305 H   0  0  0  0  0  0  0  0  0  0  0  0
   -5.4167    2.1134   -2.1109 H   0  0  0  0  0  0  0  0  0  0  0  0
   -3.2844    1.8380   -0.8375 H   0  0  0  0  0  0  0  0  0  0  0  0
  1  2  1  0
  2  3  1  0
  3  4  1  0
  3  5  1  0
  5  6  1  0
  5  7  1  0
  7  8  2  0
  7  9  1  0
  9 10  1  0
 10 11  1  0
 11 12  1  0
 12 13  2  0
 13 14  1  0
 14 15  1  0
 15 16  2  0
 16 17  1  0
 17 18  2  0
 18 19  1  0
 19 20  2  0
 20 12  1  0
 20 15  1  0
  1 21  1  0
  1 22  1  0
  1 23  1  0
  2 24  1  0
  2 25  1  0
  3 26  1  6
  4 27  1  0
  4 28  1  0
  4 29  1  0
  5 30  1  1
  6 31  1  0
  9 32  1  0
 10 33  1  0
 10 34  1  0
 11 35  1  0
 11 36  1  0
 13 37  1  0
 14 38  1  0
 16 39  1  0
 17 40  1  0
 18 41  1  0
 19 42  1  0
M  END
>  <UniqueID>  (101) 
100

>  <SMILES>  (101) 
CC[C@H](C)[C@@H](O)C(=O)NCCc1c[nH]c2ccccc12

>  <Energy>  (101) 
64.836483021733

>  <Genealogy>  (101) 
CC[C@H](C)[C@@H](O)C(=O)NCCc1c[nH]c2ccccc12 (3D coordinates assigned)
CC[C@H](C)[C@@H](O)C(=O)NCCc1c[nH]c2ccccc12 (optimized conformer: 64.836483021733 kcal/mol)

$$$$
untitled_line_101
     RDKit          3D

 38 40  0  0  0  0  0  0  0  0999 V2000
   -1.0491    0.8763    1.3608 O   0  0  0  0  0  0  0  0  0  0  0  0
   -1.7575    0.3316    0.4703 C   0  0  0  0  0  0  0  0  0  0  0  0
   -1.1290   -0.3149   -0.6481 N   0  0  0  0  0  0  0  0  0  0  0  0
    0.3133   -0.2602   -0.8750 C   0  0  0  0  0  0  0  0  0  0  0  0
    1.0369   -1.2415    0.0495 C   0  0  0  0  0  0  0  0  0  0  0  0
    2.5176   -1.1818   -0.1756 C   0  0  0  0  0  0  0  0  0  0  0  0
    3.2621   -1.9944   -1.0253 C   0  0  0  0  0  0  0  0  0  0  0  0
    4.5586   -1.6079   -1.0311 N   0  0  0  0  0  0  0  0  0  0  0  0
    4.6353   -0.5513   -0.2031 C   0  0  0  0  0  0  0  0  0  0  0  0
    5.7671    0.2040    0.1010 C   0  0  0  0  0  0  0  0  0  0  0  0
    5.6155    1.2893    0.9837 C   0  0  0  0  0  0  0  0  0  0  0  0
    4.3501    1.5941    1.5331 C   0  0  0  0  0  0  0  0  0  0  0  0
    3.2248    0.8154    1.2065 C   0  0  0  0  0  0  0  0  0  0  0  0
    3.4080   -0.2573    0.3337 C   0  0  0  0  0  0  0  0  0  0  0  0
   -3.2307    0.3373    0.6147 C   0  0  0  0  0  0  0  0  0  0  0  0
   -3.7879    0.1425    1.8887 C   0  0  0  0  0  0  0  0  0  0  0  0
   -5.1705    0.1320    2.0624 C   0  0  0  0  0  0  0  0  0  0  0  0
   -6.0138    0.3172    0.9688 C   0  0  0  0  0  0  0  0  0  0  0  0
   -5.4871    0.5291   -0.3095 C   0  0  0  0  0  0  0  0  0  0  0  0
   -6.3900    0.6995   -1.3614 O   0  0  0  0  0  0  0  0  0  0  0  0
   -4.0813    0.5624   -0.4922 C   0  0  0  0  0  0  0  0  0  0  0  0
   -3.5084    0.8481   -1.7353 O   0  0  0  0  0  0  0  0  0  0  0  0
   -1.7108   -0.8613   -1.3221 H   0  0  0  0  0  0  0  0  0  0  0  0
    0.6804    0.7768   -0.7116 H   0  0  0  0  0  0  0  0  0  0  0  0
    0.5242   -0.5340   -1.9322 H   0  0  0  0  0  0  0  0  0  0  0  0
    0.8197   -1.0017    1.1118 H   0  0  0  0  0  0  0  0  0  0  0  0
    0.6737   -2.2733   -0.1480 H   0  0  0  0  0  0  0  0  0  0  0  0
    2.8738   -2.8150   -1.6144 H   0  0  0  0  0  0  0  0  0  0  0  0
    5.3360   -2.0367   -1.5807 H   0  0  0  0  0  0  0  0  0  0  0  0
    6.7312   -0.0334   -0.3297 H   0  0  0  0  0  0  0  0  0  0  0  0
    6.4737    1.8965    1.2409 H   0  0  0  0  0  0  0  0  0  0  0  0
    4.2449    2.4333    2.2082 H   0  0  0  0  0  0  0  0  0  0  0  0
    2.2515    1.0457    1.6200 H   0  0  0  0  0  0  0  0  0  0  0  0
   -3.1499   -0.0175    2.7495 H   0  0  0  0  0  0  0  0  0  0  0  0
   -5.5903   -0.0280    3.0473 H   0  0  0  0  0  0  0  0  0  0  0  0
   -7.0866    0.2969    1.1144 H   0  0  0  0  0  0  0  0  0  0  0  0
   -6.1203    0.8024   -2.3288 H   0  0  0  0  0  0  0  0  0  0  0  0
   -4.0356    1.0798   -2.5645 H   0  0  0  0  0  0  0  0  0  0  0  0
  1  2  2  0
  2  3  1  0
  3  4  1  0
  4  5  1  0
  5  6  1  0
  6  7  2  0
  7  8  1  0
  8  9  1  0
  9 10  2  0
 10 11  1  0
 11 12  2  0
 12 13  1  0
 13 14  2  0
  2 15  1  0
 15 16  2  0
 16 17  1  0
 17 18  2  0
 18 19  1  0
 19 20  1  0
 19 21  2  0
 21 22  1  0
 14  6  1  0
 21 15  1  0
 14  9  1  0
  3 23  1  0
  4 24  1  0
  4 25  1  0
  5 26  1  0
  5 27  1  0
  7 28  1  0
  8 29  1  0
 10 30  1  0
 11 31  1  0
 12 32  1  0
 13 33  1  0
 16 34  1  0
 17 35  1  0
 18 36  1  0
 20 37  1  0
 22 38  1  0
M  END
>  <UniqueID>  (102) 
101

>  <SMILES>  (102) 
O=C(NCCc1c[nH]c2ccccc12)c1cccc(O)c1O

>  <Energy>  (102) 
74.937962043968

>  <Genealogy>  (102) 
O=C(NCCc1c[nH]c2ccccc12)c1cccc(O)c1O (3D coordinates assigned)
O=C(NCCc1c[nH]c2ccccc12)c1cccc(O)c1O (optimized conformer: 74.937962043968 kcal/mol)

$$$$
untitled_line_102
     RDKit          3D

 44 47  0  0  0  0  0  0  0  0999 V2000
   -7.3270    0.0293    0.4820 C   0  0  0  0  0  0  0  0  0  0  0  0
   -6.9099    1.2868    0.0373 C   0  0  0  0  0  0  0  0  0  0  0  0
   -5.5915    1.4827   -0.3838 C   0  0  0  0  0  0  0  0  0  0  0  0
   -4.6792    0.4160   -0.3630 C   0  0  0  0  0  0  0  0  0  0  0  0
   -3.3530    0.6003   -0.7827 C   0  0  0  0  0  0  0  0  0  0  0  0
   -2.4481   -0.4729   -0.7671 C   0  0  0  0  0  0  0  0  0  0  0  0
   -1.0144   -0.2616   -1.1814 C   0  0  0  0  0  0  0  0  0  0  0  0
   -0.2023    0.1544   -0.0287 N   0  0  0  0  0  4  0  0  0  0  0  0
    1.1976    0.3608   -0.4280 C   0  0  0  0  0  0  0  0  0  0  0  0
    2.0467    0.7935    0.7730 C   0  0  0  0  0  0  0  0  0  0  0  0
    3.4743    0.9987    0.3632 C   0  0  0  0  0  0  0  0  0  0  0  0
    4.0592    2.1975   -0.0337 C   0  0  0  0  0  0  0  0  0  0  0  0
    5.3444    1.9953   -0.4044 N   0  0  0  0  0  0  0  0  0  0  0  0
    5.5709    0.6781   -0.2573 C   0  0  0  0  0  0  0  0  0  0  0  0
    6.7496   -0.0130   -0.5348 C   0  0  0  0  0  0  0  0  0  0  0  0
    6.7602   -1.4046   -0.3272 C   0  0  0  0  0  0  0  0  0  0  0  0
    5.6046   -2.0670    0.1437 C   0  0  0  0  0  0  0  0  0  0  0  0
    4.4283   -1.3439    0.4133 C   0  0  0  0  0  0  0  0  0  0  0  0
    4.4506    0.0351    0.2036 C   0  0  0  0  0  0  0  0  0  0  0  0
   -2.8706   -1.7285   -0.3035 C   0  0  0  0  0  0  0  0  0  0  0  0
   -4.1892   -1.9221    0.1161 C   0  0  0  0  0  0  0  0  0  0  0  0
   -5.1018   -0.8579    0.0888 C   0  0  0  0  0  0  0  0  0  0  0  0
   -6.4284   -1.0411    0.5093 C   0  0  0  0  0  0  0  0  0  0  0  0
   -8.3491   -0.1159    0.8070 H   0  0  0  0  0  0  0  0  0  0  0  0
   -7.6103    2.1118    0.0191 H   0  0  0  0  0  0  0  0  0  0  0  0
   -5.2860    2.4646   -0.7252 H   0  0  0  0  0  0  0  0  0  0  0  0
   -3.0216    1.5760   -1.1201 H   0  0  0  0  0  0  0  0  0  0  0  0
   -0.6114   -1.2053   -1.6144 H   0  0  0  0  0  0  0  0  0  0  0  0
   -0.9710    0.5124   -1.9811 H   0  0  0  0  0  0  0  0  0  0  0  0
   -0.5863    1.0493    0.3580 H   0  0  0  0  0  0  0  0  0  0  0  0
   -0.2447   -0.5891    0.7082 H   0  0  0  0  0  0  0  0  0  0  0  0
    1.6152   -0.5841   -0.8449 H   0  0  0  0  0  0  0  0  0  0  0  0
    1.2557    1.1490   -1.2132 H   0  0  0  0  0  0  0  0  0  0  0  0
    1.6457    1.7411    1.1935 H   0  0  0  0  0  0  0  0  0  0  0  0
    2.0001    0.0188    1.5682 H   0  0  0  0  0  0  0  0  0  0  0  0
    3.5674    3.1612   -0.0606 H   0  0  0  0  0  0  0  0  0  0  0  0
    6.0162    2.7165   -0.7492 H   0  0  0  0  0  0  0  0  0  0  0  0
    7.6280    0.5024   -0.9013 H   0  0  0  0  0  0  0  0  0  0  0  0
    7.6588   -1.9716   -0.5328 H   0  0  0  0  0  0  0  0  0  0  0  0
    5.6235   -3.1382    0.2964 H   0  0  0  0  0  0  0  0  0  0  0  0
    3.5381   -1.8455    0.7700 H   0  0  0  0  0  0  0  0  0  0  0  0
   -2.1764   -2.5590   -0.2659 H   0  0  0  0  0  0  0  0  0  0  0  0
   -4.4940   -2.9015    0.4653 H   0  0  0  0  0  0  0  0  0  0  0  0
   -6.7688   -2.0087    0.8584 H   0  0  0  0  0  0  0  0  0  0  0  0
  1  2  2  0
  2  3  1  0
  3  4  2  0
  4  5  1  0
  5  6  2  0
  6  7  1  0
  7  8  1  0
  8  9  1  0
  9 10  1  0
 10 11  1  0
 11 12  2  0
 12 13  1  0
 13 14  1  0
 14 15  2  0
 15 16  1  0
 16 17  2  0
 17 18  1  0
 18 19  2  0
  6 20  1  0
 20 21  2  0
 21 22  1  0
 22 23  2  0
 23  1  1  0
 22  4  1  0
 19 11  1  0
 19 14  1  0
  1 24  1  0
  2 25  1  0
  3 26  1  0
  5 27  1  0
  7 28  1  0
  7 29  1  0
  8 30  1  0
  8 31  1  0
  9 32  1  0
  9 33  1  0
 10 34  1  0
 10 35  1  0
 12 36  1  0
 13 37  1  0
 15 38  1  0
 16 39  1  0
 17 40  1  0
 18 41  1  0
 20 42  1  0
 21 43  1  0
 23 44  1  0
M  CHG  1   8   1
M  END
>  <UniqueID>  (103) 
102

>  <SMILES>  (103) 
c1ccc2cc(C[NH2+]CCc3c[nH]c4ccccc34)ccc2c1

>  <Energy>  (103) 
79.4453713900505

>  <Genealogy>  (103) 
c1ccc2cc(C[NH2+]CCc3c[nH]c4ccccc34)ccc2c1 (protonated)
c1ccc2cc(C[NH2+]CCc3c[nH]c4ccccc34)ccc2c1 (3D coordinates assigned)
c1ccc2cc(C[NH2+]CCc3c[nH]c4ccccc34)ccc2c1 (optimized conformer: 79.4453713900505 kcal/mol)

$$$$
untitled_line_103
     RDKit          3D

 47 51  0  0  0  0  0  0  0  0999 V2000
    6.3859   -0.3825    0.2888 C   0  0  0  0  0  0  0  0  0  0  0  0
    5.5982    0.2581    1.2713 C   0  0  0  0  0  0  0  0  0  0  0  0
    4.2266    0.4808    1.0517 C   0  0  0  0  0  0  0  0  0  0  0  0
    3.6846    0.0532   -0.1607 C   0  0  0  0  0  0  0  0  0  0  0  0
    2.3981    0.1167   -0.6585 C   0  0  0  0  0  0  0  0  0  0  0  0
    1.1750    0.6386    0.0335 C   0  0  0  0  0  0  0  0  0  0  0  0
    0.5794   -0.4360    0.9534 C   0  0  0  0  0  0  0  0  0  0  0  0
   -0.6087    0.0437    1.6857 N   0  0  0  0  0  4  0  0  0  0  0  0
   -1.7909    0.1061    0.8362 C   0  0  0  0  0  0  0  0  0  0  0  0
   -2.2389    1.3424    0.2730 C   0  0  0  0  0  0  0  0  0  0  0  0
   -1.5600    2.5730    0.4635 C   0  0  0  0  0  0  0  0  0  0  0  0
   -2.0409    3.7553   -0.1026 C   0  0  0  0  0  0  0  0  0  0  0  0
   -3.2010    3.7467   -0.8692 C   0  0  0  0  0  0  0  0  0  0  0  0
   -3.8854    2.5533   -1.0795 C   0  0  0  0  0  0  0  0  0  0  0  0
   -3.4170    1.3515   -0.5207 C   0  0  0  0  0  0  0  0  0  0  0  0
   -4.1035    0.2013   -0.7517 N   0  0  0  0  0  4  0  0  0  0  0  0
   -3.6992   -0.9950   -0.2504 C   0  0  0  0  0  0  0  0  0  0  0  0
   -4.4478   -2.1503   -0.5349 C   0  0  0  0  0  0  0  0  0  0  0  0
   -4.0535   -3.3899   -0.0376 C   0  0  0  0  0  0  0  0  0  0  0  0
   -2.9088   -3.4917    0.7467 C   0  0  0  0  0  0  0  0  0  0  0  0
   -2.1533   -2.3552    1.0416 C   0  0  0  0  0  0  0  0  0  0  0  0
   -2.5334   -1.0806    0.5521 C   0  0  0  0  0  0  0  0  0  0  0  0
    2.4448   -0.5022   -1.9041 C   0  0  0  0  0  0  0  0  0  0  0  0
    3.7036   -0.9139   -2.1794 N   0  0  0  0  0  0  0  0  0  0  0  0
    4.4479   -0.5724   -1.1130 C   0  0  0  0  0  0  0  0  0  0  0  0
    5.8087   -0.8082   -0.9217 C   0  0  0  0  0  0  0  0  0  0  0  0
    7.4397   -0.5500    0.4697 H   0  0  0  0  0  0  0  0  0  0  0  0
    6.0524    0.5781    2.2000 H   0  0  0  0  0  0  0  0  0  0  0  0
    3.6163    0.9667    1.8018 H   0  0  0  0  0  0  0  0  0  0  0  0
    1.4482    1.5374    0.6259 H   0  0  0  0  0  0  0  0  0  0  0  0
    0.4310    0.9360   -0.7349 H   0  0  0  0  0  0  0  0  0  0  0  0
    1.3557   -0.7385    1.6920 H   0  0  0  0  0  0  0  0  0  0  0  0
    0.3362   -1.3379    0.3495 H   0  0  0  0  0  0  0  0  0  0  0  0
   -0.7941   -0.5958    2.4905 H   0  0  0  0  0  0  0  0  0  0  0  0
   -0.4003    0.9455    2.1626 H   0  0  0  0  0  0  0  0  0  0  0  0
   -0.6470    2.6599    1.0266 H   0  0  0  0  0  0  0  0  0  0  0  0
   -1.5066    4.6841    0.0522 H   0  0  0  0  0  0  0  0  0  0  0  0
   -3.5686    4.6666   -1.3055 H   0  0  0  0  0  0  0  0  0  0  0  0
   -4.7846    2.5650   -1.6833 H   0  0  0  0  0  0  0  0  0  0  0  0
   -4.9689    0.2370   -1.3400 H   0  0  0  0  0  0  0  0  0  0  0  0
   -5.3401   -2.0904   -1.1461 H   0  0  0  0  0  0  0  0  0  0  0  0
   -4.6356   -4.2742   -0.2632 H   0  0  0  0  0  0  0  0  0  0  0  0
   -2.6023   -4.4576    1.1277 H   0  0  0  0  0  0  0  0  0  0  0  0
   -1.2710   -2.5056    1.6444 H   0  0  0  0  0  0  0  0  0  0  0  0
    1.6016   -0.6531   -2.5656 H   0  0  0  0  0  0  0  0  0  0  0  0
    4.0246   -1.4105   -3.0401 H   0  0  0  0  0  0  0  0  0  0  0  0
    6.4026   -1.3056   -1.6776 H   0  0  0  0  0  0  0  0  0  0  0  0
  1  2  2  0
  2  3  1  0
  3  4  2  0
  4  5  1  0
  5  6  1  0
  6  7  1  0
  7  8  1  0
  8  9  1  0
  9 10  1  0
 10 11  2  0
 11 12  1  0
 12 13  2  0
 13 14  1  0
 14 15  2  0
 15 16  1  0
 16 17  2  0
 17 18  1  0
 18 19  2  0
 19 20  1  0
 20 21  2  0
 21 22  1  0
  5 23  2  0
 23 24  1  0
 24 25  1  0
 25 26  2  0
 26  1  1  0
 25  4  1  0
 22  9  2  0
 15 10  1  0
 22 17  1  0
  1 27  1  0
  2 28  1  0
  3 29  1  0
  6 30  1  0
  6 31  1  0
  7 32  1  0
  7 33  1  0
  8 34  1  0
  8 35  1  0
 11 36  1  0
 12 37  1  0
 13 38  1  0
 14 39  1  0
 16 40  1  0
 18 41  1  0
 19 42  1  0
 20 43  1  0
 21 44  1  0
 23 45  1  0
 24 46  1  0
 26 47  1  0
M  CHG  2   8   1  16   1
M  END
>  <UniqueID>  (104) 
103

>  <SMILES>  (104) 
c1ccc2c(CC[NH2+]c3c4ccccc4[nH+]c4ccccc34)c[nH]c2c1

>  <Energy>  (104) 
99.48646786860083

>  <Genealogy>  (104) 
c1ccc2c(CC[NH2+]c3c4ccccc4[nH+]c4ccccc34)c[nH]c2c1 (protonated)
c1ccc2c(CC[NH2+]c3c4ccccc4[nH+]c4ccccc34)c[nH]c2c1 (3D coordinates assigned)
c1ccc2c(CC[NH2+]c3c4ccccc4[nH+]c4ccccc34)c[nH]c2c1 (optimized conformer: 99.48646786860083 kcal/mol)

$$$$
untitled_line_104
     RDKit          3D

 41 43  0  0  0  0  0  0  0  0999 V2000
    4.8653    1.1273    1.9594 C   0  0  0  0  0  0  0  0  0  0  0  0
    4.3005   -0.1528    2.1548 C   0  0  0  0  0  0  0  0  0  0  0  0
    3.4478   -0.7113    1.1853 C   0  0  0  0  0  0  0  0  0  0  0  0
    3.1878    0.0391    0.0383 C   0  0  0  0  0  0  0  0  0  0  0  0
    2.4038   -0.2251   -1.0674 C   0  0  0  0  0  0  0  0  0  0  0  0
    1.5476   -1.4332   -1.3152 C   0  0  0  0  0  0  0  0  0  0  0  0
    0.2531   -1.4003   -0.4871 C   0  0  0  0  0  0  0  0  0  0  0  0
   -0.6610   -0.3374   -0.9468 N   0  0  0  0  0  4  0  0  0  0  0  0
   -1.8859   -0.2478   -0.1178 C   0  0  0  0  0  0  0  0  0  0  0  0
   -2.8717   -1.4026   -0.4286 C   0  0  0  0  0  0  0  0  0  0  0  0
   -4.1654   -1.2688    0.3851 C   0  0  0  0  0  0  0  0  0  0  0  0
   -4.8365    0.0853    0.1381 C   0  0  0  0  0  0  0  0  0  0  0  0
   -3.8759    1.2341    0.4572 C   0  0  0  0  0  0  0  0  0  0  0  0
   -2.5839    1.1110   -0.3590 C   0  0  0  0  0  0  0  0  0  0  0  0
    2.5112    0.8979   -1.8826 C   0  0  0  0  0  0  0  0  0  0  0  0
    3.3306    1.8141   -1.3180 N   0  0  0  0  0  0  0  0  0  0  0  0
    3.7351    1.2823   -0.1514 C   0  0  0  0  0  0  0  0  0  0  0  0
    4.5822    1.8611    0.7928 C   0  0  0  0  0  0  0  0  0  0  0  0
    5.5191    1.5473    2.7127 H   0  0  0  0  0  0  0  0  0  0  0  0
    4.5245   -0.7074    3.0567 H   0  0  0  0  0  0  0  0  0  0  0  0
    3.0107   -1.6909    1.3288 H   0  0  0  0  0  0  0  0  0  0  0  0
    1.3019   -1.5071   -2.3967 H   0  0  0  0  0  0  0  0  0  0  0  0
    2.1274   -2.3417   -1.0445 H   0  0  0  0  0  0  0  0  0  0  0  0
   -0.2292   -2.3940   -0.5965 H   0  0  0  0  0  0  0  0  0  0  0  0
    0.5061   -1.2587    0.5876 H   0  0  0  0  0  0  0  0  0  0  0  0
   -0.9181   -0.5025   -1.9486 H   0  0  0  0  0  0  0  0  0  0  0  0
   -0.1520    0.5752   -0.8884 H   0  0  0  0  0  0  0  0  0  0  0  0
   -1.6107   -0.2948    0.9616 H   0  0  0  0  0  0  0  0  0  0  0  0
   -2.4155   -2.3810   -0.1749 H   0  0  0  0  0  0  0  0  0  0  0  0
   -3.1194   -1.4105   -1.5131 H   0  0  0  0  0  0  0  0  0  0  0  0
   -4.8659   -2.0819    0.0964 H   0  0  0  0  0  0  0  0  0  0  0  0
   -3.9386   -1.3816    1.4683 H   0  0  0  0  0  0  0  0  0  0  0  0
   -5.1641    0.1536   -0.9227 H   0  0  0  0  0  0  0  0  0  0  0  0
   -5.7382    0.1711    0.7819 H   0  0  0  0  0  0  0  0  0  0  0  0
   -3.6347    1.2308    1.5431 H   0  0  0  0  0  0  0  0  0  0  0  0
   -4.3694    2.2009    0.2191 H   0  0  0  0  0  0  0  0  0  0  0  0
   -2.8172    1.2286   -1.4405 H   0  0  0  0  0  0  0  0  0  0  0  0
   -1.9022    1.9387   -0.0655 H   0  0  0  0  0  0  0  0  0  0  0  0
    2.0077    1.0403   -2.8299 H   0  0  0  0  0  0  0  0  0  0  0  0
    3.5857    2.7487   -1.7078 H   0  0  0  0  0  0  0  0  0  0  0  0
    5.0075    2.8439    0.6357 H   0  0  0  0  0  0  0  0  0  0  0  0
  1  2  2  0
  2  3  1  0
  3  4  2  0
  4  5  1  0
  5  6  1  0
  6  7  1  0
  7  8  1  0
  8  9  1  0
  9 10  1  0
 10 11  1  0
 11 12  1  0
 12 13  1  0
 13 14  1  0
  5 15  2  0
 15 16  1  0
 16 17  1  0
 17 18  2  0
 18  1  1  0
 17  4  1  0
 14  9  1  0
  1 19  1  0
  2 20  1  0
  3 21  1  0
  6 22  1  0
  6 23  1  0
  7 24  1  0
  7 25  1  0
  8 26  1  0
  8 27  1  0
  9 28  1  0
 10 29  1  0
 10 30  1  0
 11 31  1  0
 11 32  1  0
 12 33  1  0
 12 34  1  0
 13 35  1  0
 13 36  1  0
 14 37  1  0
 14 38  1  0
 15 39  1  0
 16 40  1  0
 18 41  1  0
M  CHG  1   8   1
M  END
>  <UniqueID>  (105) 
104

>  <SMILES>  (105) 
c1ccc2c(CC[NH2+]C3CCCCC3)c[nH]c2c1

>  <Energy>  (105) 
66.12734907783155

>  <Genealogy>  (105) 
c1ccc2c(CC[NH2+]C3CCCCC3)c[nH]c2c1 (protonated)
c1ccc2c(CC[NH2+]C3CCCCC3)c[nH]c2c1 (3D coordinates assigned)
c1ccc2c(CC[NH2+]C3CCCCC3)c[nH]c2c1 (nonaromatic ring conformer: 66.12734907783155 kcal/mol)

$$$$
untitled_line_105
     RDKit          3D

 47 49  0  0  0  0  0  0  0  0999 V2000
    8.1856    3.7021    1.2386 H   0  0  0  0  0  0  0  0  0  0  0  0
    7.8991    3.7163    0.2896 O   0  0  0  0  0  0  0  0  0  0  0  0
    6.8206    2.8981    0.2410 N   0  0  0  0  0  0  0  0  0  0  0  0
    6.9738    1.8906    0.0189 H   0  0  0  0  0  0  0  0  0  0  0  0
    5.5003    3.4382    0.3835 C   0  0  0  0  0  0  0  0  0  0  0  0
    5.3489    4.6884    0.4249 O   0  0  0  0  0  0  0  0  0  0  0  0
    4.2985    2.5816    0.4557 C   0  0  0  0  0  0  0  0  0  0  0  0
    3.3495    3.0696    0.2818 H   0  0  0  0  0  0  0  0  0  0  0  0
    4.3407    1.2703    0.7352 C   0  0  0  0  0  0  0  0  0  0  0  0
    5.2943    0.7895    0.9034 H   0  0  0  0  0  0  0  0  0  0  0  0
    3.1365    0.4056    0.8061 C   0  0  0  0  0  0  0  0  0  0  0  0
    1.8482    0.9168    1.0605 C   0  0  0  0  0  0  0  0  0  0  0  0
    1.6833    1.9715    1.2305 H   0  0  0  0  0  0  0  0  0  0  0  0
    0.7464    0.0593    1.1265 C   0  0  0  0  0  0  0  0  0  0  0  0
   -0.2353    0.4746    1.3140 H   0  0  0  0  0  0  0  0  0  0  0  0
    0.9111   -1.3234    0.9603 C   0  0  0  0  0  0  0  0  0  0  0  0
   -0.2849   -2.2405    0.9875 C   0  0  0  0  0  0  0  0  0  0  0  0
   -1.0320   -1.8366    1.7027 H   0  0  0  0  0  0  0  0  0  0  0  0
    0.0247   -3.2412    1.3656 H   0  0  0  0  0  0  0  0  0  0  0  0
   -0.8667   -2.3631   -0.3591 N   0  0  0  0  0  4  0  0  0  0  0  0
   -1.1403   -1.4198   -0.7192 H   0  0  0  0  0  0  0  0  0  0  0  0
   -0.1334   -2.7470   -1.0010 H   0  0  0  0  0  0  0  0  0  0  0  0
   -2.0181   -3.2863   -0.3918 C   0  0  0  0  0  0  0  0  0  0  0  0
   -1.7814   -4.2202    0.1654 H   0  0  0  0  0  0  0  0  0  0  0  0
   -2.2091   -3.5918   -1.4451 H   0  0  0  0  0  0  0  0  0  0  0  0
   -3.3127   -2.6749    0.1780 C   0  0  0  0  0  0  0  0  0  0  0  0
   -4.1058   -3.4527    0.1555 H   0  0  0  0  0  0  0  0  0  0  0  0
   -3.1821   -2.3902    1.2411 H   0  0  0  0  0  0  0  0  0  0  0  0
   -3.7860   -1.5008   -0.6308 C   0  0  0  0  0  0  0  0  0  0  0  0
   -4.3570   -1.5501   -1.8993 C   0  0  0  0  0  0  0  0  0  0  0  0
   -4.5724   -2.4508   -2.4592 H   0  0  0  0  0  0  0  0  0  0  0  0
   -4.5953   -0.3008   -2.3592 N   0  0  0  0  0  0  0  0  0  0  0  0
   -5.0106   -0.0433   -3.2819 H   0  0  0  0  0  0  0  0  0  0  0  0
   -4.1731    0.5368   -1.3962 C   0  0  0  0  0  0  0  0  0  0  0  0
   -4.1929    1.9307   -1.4220 C   0  0  0  0  0  0  0  0  0  0  0  0
   -4.5871    2.4695   -2.2738 H   0  0  0  0  0  0  0  0  0  0  0  0
   -3.6793    2.6165   -0.3062 C   0  0  0  0  0  0  0  0  0  0  0  0
   -3.6789    3.6988   -0.2940 H   0  0  0  0  0  0  0  0  0  0  0  0
   -3.1625    1.9021    0.7971 C   0  0  0  0  0  0  0  0  0  0  0  0
   -2.7681    2.4400    1.6492 H   0  0  0  0  0  0  0  0  0  0  0  0
   -3.1563    0.4956    0.7959 C   0  0  0  0  0  0  0  0  0  0  0  0
   -2.7634   -0.0534    1.6405 H   0  0  0  0  0  0  0  0  0  0  0  0
   -3.6716   -0.1576   -0.3244 C   0  0  0  0  0  0  0  0  0  0  0  0
    2.1913   -1.8364    0.7087 C   0  0  0  0  0  0  0  0  0  0  0  0
    2.3356   -2.8993    0.5603 H   0  0  0  0  0  0  0  0  0  0  0  0
    3.2944   -0.9806    0.6437 C   0  0  0  0  0  0  0  0  0  0  0  0
    4.2738   -1.4017    0.4518 H   0  0  0  0  0  0  0  0  0  0  0  0
  1  2  1  0
  2  3  1  0
  3  4  1  0
  3  5  1  0
  5  6  2  0
  5  7  1  0
  7  8  1  0
  7  9  2  0
  9 10  1  0
  9 11  1  0
 11 12  2  0
 12 13  1  0
 12 14  1  0
 14 15  1  0
 14 16  2  0
 16 17  1  0
 17 18  1  0
 17 19  1  0
 17 20  1  0
 20 21  1  0
 20 22  1  0
 20 23  1  0
 23 24  1  0
 23 25  1  0
 23 26  1  0
 26 27  1  0
 26 28  1  0
 26 29  1  0
 29 30  2  0
 30 31  1  0
 30 32  1  0
 32 33  1  0
 32 34  1  0
 34 35  2  0
 35 36  1  0
 35 37  1  0
 37 38  1  0
 37 39  2  0
 39 40  1  0
 39 41  1  0
 41 42  1  0
 41 43  2  0
 16 44  1  0
 44 45  1  0
 44 46  2  0
 46 47  1  0
 46 11  1  0
 43 29  1  0
 43 34  1  0
M  CHG  1  20   1
M  END
>  <UniqueID>  (106) 
105

>  <SMILES>  (106) 
O=C(/C=C/c1ccc(C[NH2+]CCc2c[nH]c3ccccc23)cc1)NO

>  <Energy>  (106) 
79.80563035565014

>  <Genealogy>  (106) 
O=C(/C=C/c1ccc(C[NH2+]CCc2c[nH]c3ccccc23)cc1)NO (protonated)
O=C(/C=C/c1ccc(C[NH2+]CCc2c[nH]c3ccccc23)cc1)NO (cis-trans isomerization)
O=C(/C=C/c1ccc(C[NH2+]CCc2c[nH]c3ccccc23)cc1)NO (3D coordinates assigned)
O=C(/C=C/c1ccc(C[NH2+]CCc2c[nH]c3ccccc23)cc1)NO (optimized conformer: 79.80563035565014 kcal/mol)

$$$$
untitled_line_106
     RDKit          3D

 31 32  0  0  0  0  0  0  0  0999 V2000
    1.3520    0.8302   -1.3737 N   0  0  0  0  0  4  0  0  0  0  0  0
    1.0492    0.3609   -2.5510 C   0  0  0  0  0  0  0  0  0  0  0  0
    1.7985   -0.7383   -3.1073 N   0  0  0  0  0  0  0  0  0  0  0  0
    2.2976   -1.8771   -2.3312 C   0  0  0  0  0  0  0  0  0  0  0  0
    1.1681   -2.8493   -1.9662 C   0  0  0  0  0  0  0  0  0  0  0  0
    0.1816   -2.2494   -1.0073 C   0  0  0  0  0  0  0  0  0  0  0  0
   -1.1086   -1.8213   -1.3067 C   0  0  0  0  0  0  0  0  0  0  0  0
   -1.6908   -1.2764   -0.2145 N   0  0  0  0  0  0  0  0  0  0  0  0
   -0.7800   -1.3564    0.7709 C   0  0  0  0  0  0  0  0  0  0  0  0
   -0.9148   -0.9078    2.0840 C   0  0  0  0  0  0  0  0  0  0  0  0
    0.1776   -1.0813    2.9534 C   0  0  0  0  0  0  0  0  0  0  0  0
    1.3667   -1.6916    2.4959 C   0  0  0  0  0  0  0  0  0  0  0  0
    1.4749   -2.1330    1.1646 C   0  0  0  0  0  0  0  0  0  0  0  0
    0.3754   -1.9470    0.3265 C   0  0  0  0  0  0  0  0  0  0  0  0
    0.0265    1.0783   -3.4112 C   0  0  0  0  0  0  0  0  0  0  0  0
   -1.3814    1.6129   -2.4494 Cl  0  0  0  0  0  0  0  0  0  0  0  0
    0.7872    2.5025   -4.1600 Cl  0  0  0  0  0  0  0  0  0  0  0  0
   -0.6068    0.0234   -4.7063 Cl  0  0  0  0  0  0  0  0  0  0  0  0
    2.1051    0.4106   -0.7887 H   0  0  0  0  0  0  0  0  0  0  0  0
    0.8788    1.6744   -0.9827 H   0  0  0  0  0  0  0  0  0  0  0  0
    1.9633   -0.7561   -4.1388 H   0  0  0  0  0  0  0  0  0  0  0  0
    3.0316   -2.4329   -2.9542 H   0  0  0  0  0  0  0  0  0  0  0  0
    2.8488   -1.5427   -1.4302 H   0  0  0  0  0  0  0  0  0  0  0  0
    1.6089   -3.7564   -1.5003 H   0  0  0  0  0  0  0  0  0  0  0  0
    0.6441   -3.1700   -2.8928 H   0  0  0  0  0  0  0  0  0  0  0  0
   -1.5868   -1.8877   -2.2752 H   0  0  0  0  0  0  0  0  0  0  0  0
   -2.6490   -0.8654   -0.1567 H   0  0  0  0  0  0  0  0  0  0  0  0
   -1.8289   -0.4390    2.4244 H   0  0  0  0  0  0  0  0  0  0  0  0
    0.1065   -0.7443    3.9793 H   0  0  0  0  0  0  0  0  0  0  0  0
    2.2005   -1.8197    3.1737 H   0  0  0  0  0  0  0  0  0  0  0  0
    2.3828   -2.6015    0.8081 H   0  0  0  0  0  0  0  0  0  0  0  0
  1  2  2  3
  2  3  1  0
  3  4  1  0
  4  5  1  0
  5  6  1  0
  6  7  2  0
  7  8  1  0
  8  9  1  0
  9 10  2  0
 10 11  1  0
 11 12  2  0
 12 13  1  0
 13 14  2  0
  2 15  1  0
 15 16  1  0
 15 17  1  0
 15 18  1  0
 14  6  1  0
 14  9  1  0
  1 19  1  0
  1 20  1  0
  3 21  1  0
  4 22  1  0
  4 23  1  0
  5 24  1  0
  5 25  1  0
  7 26  1  0
  8 27  1  0
 10 28  1  0
 11 29  1  0
 12 30  1  0
 13 31  1  0
M  CHG  1   1   1
M  END
>  <UniqueID>  (107) 
106

>  <SMILES>  (107) 
[NH2+]=C(NCCc1c[nH]c2ccccc12)C(Cl)(Cl)Cl

>  <Energy>  (107) 
60.391424597223114

>  <Genealogy>  (107) 
[NH2+]=C(NCCc1c[nH]c2ccccc12)C(Cl)(Cl)Cl (protonated)
[NH2+]=C(NCCc1c[nH]c2ccccc12)C(Cl)(Cl)Cl (3D coordinates assigned)
[NH2+]=C(NCCc1c[nH]c2ccccc12)C(Cl)(Cl)Cl (optimized conformer: 60.391424597223114 kcal/mol)

$$$$
untitled_line_107
     RDKit          3D

 29 30  0  0  0  0  0  0  0  0999 V2000
    1.9714   -2.4592    1.3009 C   0  0  0  0  0  0  0  0  0  0  0  0
    2.2166   -1.8581   -0.0441 C   0  0  0  0  0  0  0  0  0  0  0  0
    3.3358   -1.3371   -0.3002 O   0  0  0  0  0  0  0  0  0  0  0  0
    1.1869   -1.8950   -1.0407 N   0  0  0  0  0  0  0  0  0  0  0  0
    1.3296   -1.2523   -2.3467 C   0  0  0  0  0  0  0  0  0  0  0  0
    1.2062    0.2710   -2.2307 C   0  0  0  0  0  0  0  0  0  0  0  0
   -0.1437    0.6695   -1.7077 C   0  0  0  0  0  0  0  0  0  0  0  0
   -1.3247    0.7360   -2.4412 C   0  0  0  0  0  0  0  0  0  0  0  0
   -2.3662    1.0386   -1.6333 N   0  0  0  0  0  0  0  0  0  0  0  0
   -1.8555    1.1522   -0.3950 C   0  0  0  0  0  0  0  0  0  0  0  0
   -2.5491    1.4327    0.7816 C   0  0  0  0  0  0  0  0  0  0  0  0
   -1.8158    1.4842    1.9810 C   0  0  0  0  0  0  0  0  0  0  0  0
   -0.4220    1.2558    1.9779 C   0  0  0  0  0  0  0  0  0  0  0  0
    0.2517    0.9747    0.7757 C   0  0  0  0  0  0  0  0  0  0  0  0
   -0.5017    0.9303   -0.3984 C   0  0  0  0  0  0  0  0  0  0  0  0
    1.9130   -3.5635    1.2077 H   0  0  0  0  0  0  0  0  0  0  0  0
    1.0141   -2.0751    1.7116 H   0  0  0  0  0  0  0  0  0  0  0  0
    2.7919   -2.1961    2.0018 H   0  0  0  0  0  0  0  0  0  0  0  0
    0.3069   -2.4211   -0.8384 H   0  0  0  0  0  0  0  0  0  0  0  0
    0.5408   -1.6325   -3.0324 H   0  0  0  0  0  0  0  0  0  0  0  0
    2.3131   -1.5180   -2.7906 H   0  0  0  0  0  0  0  0  0  0  0  0
    2.0060    0.6726   -1.5738 H   0  0  0  0  0  0  0  0  0  0  0  0
    1.3488    0.7205   -3.2368 H   0  0  0  0  0  0  0  0  0  0  0  0
   -1.4176    0.5555   -3.5042 H   0  0  0  0  0  0  0  0  0  0  0  0
   -3.3660    1.1441   -1.9157 H   0  0  0  0  0  0  0  0  0  0  0  0
   -3.6181    1.6018    0.7746 H   0  0  0  0  0  0  0  0  0  0  0  0
   -2.3235    1.6985    2.9124 H   0  0  0  0  0  0  0  0  0  0  0  0
    0.1318    1.2969    2.9068 H   0  0  0  0  0  0  0  0  0  0  0  0
    1.3192    0.8016    0.7696 H   0  0  0  0  0  0  0  0  0  0  0  0
  1  2  1  0
  2  3  2  0
  2  4  1  0
  4  5  1  0
  5  6  1  0
  6  7  1  0
  7  8  2  0
  8  9  1  0
  9 10  1  0
 10 11  2  0
 11 12  1  0
 12 13  2  0
 13 14  1  0
 14 15  2  0
 15  7  1  0
 15 10  1  0
  1 16  1  0
  1 17  1  0
  1 18  1  0
  4 19  1  0
  5 20  1  0
  5 21  1  0
  6 22  1  0
  6 23  1  0
  8 24  1  0
  9 25  1  0
 11 26  1  0
 12 27  1  0
 13 28  1  0
 14 29  1  0
M  END
>  <UniqueID>  (108) 
107

>  <SMILES>  (108) 
CC(=O)NCCc1c[nH]c2ccccc12

>  <Energy>  (108) 
53.81552619465771

>  <Genealogy>  (108) 
CC(=O)NCCc1c[nH]c2ccccc12 (3D coordinates assigned)
CC(=O)NCCc1c[nH]c2ccccc12 (optimized conformer: 53.81552619465771 kcal/mol)

$$$$
untitled_line_108
     RDKit          3D

 29 30  0  0  0  0  0  0  0  0999 V2000
    4.1400    0.3531    0.2156 O   0  0  0  0  0  0  0  0  0  0  0  0
    3.0492    0.5314    0.8226 C   0  0  0  0  0  0  0  0  0  0  0  0
    2.9743    0.2876    2.2953 C   0  0  0  0  0  0  0  0  0  0  0  0
    2.0417   -1.3750    2.6321 Br  0  0  0  0  0  0  0  0  0  0  0  0
    1.8764    0.9294    0.1028 N   0  0  0  0  0  0  0  0  0  0  0  0
    1.8932    1.1121   -1.3490 C   0  0  0  0  0  0  0  0  0  0  0  0
    0.4875    1.3786   -1.9000 C   0  0  0  0  0  0  0  0  0  0  0  0
   -0.3997    0.1767   -1.7389 C   0  0  0  0  0  0  0  0  0  0  0  0
   -0.3428   -0.9937   -2.4902 C   0  0  0  0  0  0  0  0  0  0  0  0
   -1.2419   -1.8939   -2.0324 N   0  0  0  0  0  0  0  0  0  0  0  0
   -1.8613   -1.3059   -0.9944 C   0  0  0  0  0  0  0  0  0  0  0  0
   -2.8606   -1.8513   -0.1897 C   0  0  0  0  0  0  0  0  0  0  0  0
   -3.3647   -1.0613    0.8593 C   0  0  0  0  0  0  0  0  0  0  0  0
   -2.8641    0.2409    1.0785 C   0  0  0  0  0  0  0  0  0  0  0  0
   -1.8549    0.7657    0.2510 C   0  0  0  0  0  0  0  0  0  0  0  0
   -1.3736   -0.0410   -0.7818 C   0  0  0  0  0  0  0  0  0  0  0  0
    2.4268    1.1194    2.7859 H   0  0  0  0  0  0  0  0  0  0  0  0
    3.9940    0.2270    2.7316 H   0  0  0  0  0  0  0  0  0  0  0  0
    0.9924    1.0757    0.6399 H   0  0  0  0  0  0  0  0  0  0  0  0
    2.5479    1.9750   -1.5971 H   0  0  0  0  0  0  0  0  0  0  0  0
    2.3158    0.2057   -1.8358 H   0  0  0  0  0  0  0  0  0  0  0  0
    0.0440    2.2630   -1.3953 H   0  0  0  0  0  0  0  0  0  0  0  0
    0.5659    1.6189   -2.9820 H   0  0  0  0  0  0  0  0  0  0  0  0
    0.3294   -1.1794   -3.3179 H   0  0  0  0  0  0  0  0  0  0  0  0
   -1.4095   -2.8549   -2.4053 H   0  0  0  0  0  0  0  0  0  0  0  0
   -3.2360   -2.8514   -0.3637 H   0  0  0  0  0  0  0  0  0  0  0  0
   -4.1406   -1.4547    1.5031 H   0  0  0  0  0  0  0  0  0  0  0  0
   -3.2592    0.8393    1.8891 H   0  0  0  0  0  0  0  0  0  0  0  0
   -1.4695    1.7628    0.4171 H   0  0  0  0  0  0  0  0  0  0  0  0
  1  2  2  0
  2  3  1  0
  3  4  1  0
  2  5  1  0
  5  6  1  0
  6  7  1  0
  7  8  1  0
  8  9  2  0
  9 10  1  0
 10 11  1  0
 11 12  2  0
 12 13  1  0
 13 14  2  0
 14 15  1  0
 15 16  2  0
 16  8  1  0
 16 11  1  0
  3 17  1  0
  3 18  1  0
  5 19  1  0
  6 20  1  0
  6 21  1  0
  7 22  1  0
  7 23  1  0
  9 24  1  0
 10 25  1  0
 12 26  1  0
 13 27  1  0
 14 28  1  0
 15 29  1  0
M  END
>  <UniqueID>  (109) 
108

>  <SMILES>  (109) 
O=C(CBr)NCCc1c[nH]c2ccccc12

>  <Energy>  (109) 
54.38899447470434

>  <Genealogy>  (109) 
O=C(CBr)NCCc1c[nH]c2ccccc12 (3D coordinates assigned)
O=C(CBr)NCCc1c[nH]c2ccccc12 (optimized conformer: 54.38899447470434 kcal/mol)

$$$$
untitled_line_109
     RDKit          3D

 29 30  0  0  0  0  0  0  0  0999 V2000
   -3.7879   -1.2260   -0.3348 O   0  0  0  0  0  0  0  0  0  0  0  0
   -3.3176   -0.1153    0.0336 C   0  0  0  0  0  0  0  0  0  0  0  0
   -2.0946   -0.0597    0.7808 N   0  0  0  0  0  0  0  0  0  0  0  0
   -1.2827   -1.2447    1.0572 C   0  0  0  0  0  0  0  0  0  0  0  0
   -0.5700   -1.7356   -0.2077 C   0  0  0  0  0  0  0  0  0  0  0  0
    0.3300   -0.6759   -0.7729 C   0  0  0  0  0  0  0  0  0  0  0  0
    0.0101    0.2325   -1.7778 C   0  0  0  0  0  0  0  0  0  0  0  0
    1.0327    1.0952   -1.9770 N   0  0  0  0  0  0  0  0  0  0  0  0
    1.9891    0.7469   -1.0986 C   0  0  0  0  0  0  0  0  0  0  0  0
    3.2274    1.3594   -0.9105 C   0  0  0  0  0  0  0  0  0  0  0  0
    4.0724    0.8411    0.0881 C   0  0  0  0  0  0  0  0  0  0  0  0
    3.6637   -0.2623    0.8700 C   0  0  0  0  0  0  0  0  0  0  0  0
    2.4071   -0.8589    0.6595 C   0  0  0  0  0  0  0  0  0  0  0  0
    1.5944   -0.3266   -0.3416 C   0  0  0  0  0  0  0  0  0  0  0  0
   -4.0493    1.1499   -0.2924 C   0  0  0  0  0  0  0  0  0  0  0  0
   -4.4958    1.7371    0.8765 F   0  0  0  0  0  0  0  0  0  0  0  0
   -3.1966    2.0217   -0.9437 F   0  0  0  0  0  0  0  0  0  0  0  0
   -5.1347    0.8873   -1.1099 F   0  0  0  0  0  0  0  0  0  0  0  0
   -1.7768    0.8596    1.1631 H   0  0  0  0  0  0  0  0  0  0  0  0
   -1.9266   -2.0538    1.4644 H   0  0  0  0  0  0  0  0  0  0  0  0
   -0.5245   -0.9986    1.8325 H   0  0  0  0  0  0  0  0  0  0  0  0
    0.0333   -2.6349    0.0400 H   0  0  0  0  0  0  0  0  0  0  0  0
   -1.3162   -2.0381   -0.9729 H   0  0  0  0  0  0  0  0  0  0  0  0
   -0.9253    0.2687   -2.3211 H   0  0  0  0  0  0  0  0  0  0  0  0
    1.0622    1.8816   -2.6634 H   0  0  0  0  0  0  0  0  0  0  0  0
    3.5291    2.2084   -1.5102 H   0  0  0  0  0  0  0  0  0  0  0  0
    5.0405    1.2930    0.2603 H   0  0  0  0  0  0  0  0  0  0  0  0
    4.3207   -0.6503    1.6373 H   0  0  0  0  0  0  0  0  0  0  0  0
    2.0859   -1.7018    1.2573 H   0  0  0  0  0  0  0  0  0  0  0  0
  1  2  2  0
  2  3  1  0
  3  4  1  0
  4  5  1  0
  5  6  1  0
  6  7  2  0
  7  8  1  0
  8  9  1  0
  9 10  2  0
 10 11  1  0
 11 12  2  0
 12 13  1  0
 13 14  2  0
  2 15  1  0
 15 16  1  0
 15 17  1  0
 15 18  1  0
 14  6  1  0
 14  9  1  0
  3 19  1  0
  4 20  1  0
  4 21  1  0
  5 22  1  0
  5 23  1  0
  7 24  1  0
  8 25  1  0
 10 26  1  0
 11 27  1  0
 12 28  1  0
 13 29  1  0
M  END
>  <UniqueID>  (110) 
109

>  <SMILES>  (110) 
O=C(NCCc1c[nH]c2ccccc12)C(F)(F)F

>  <Energy>  (110) 
54.86758998585949

>  <Genealogy>  (110) 
O=C(NCCc1c[nH]c2ccccc12)C(F)(F)F (3D coordinates assigned)
O=C(NCCc1c[nH]c2ccccc12)C(F)(F)F (optimized conformer: 54.86758998585949 kcal/mol)

$$$$
untitled_line_110
     RDKit          3D

 37 38  0  0  0  0  0  0  0  0999 V2000
    2.2791    1.4489   -4.4890 C   0  0  0  0  0  0  0  0  0  0  0  0
    0.9361    1.5325   -3.7587 C   0  0  0  0  0  0  0  0  0  0  0  0
    0.3008    2.9158   -3.9442 C   0  0  0  0  0  0  0  0  0  0  0  0
    1.1232    1.2121   -2.2925 C   0  0  0  0  0  0  0  0  0  0  0  0
    1.5973    2.0920   -1.5228 O   0  0  0  0  0  0  0  0  0  0  0  0
    0.8169   -0.1309   -1.7551 C   0  0  0  0  0  0  0  0  0  0  0  0
    0.4163   -1.0406   -2.5316 O   0  0  0  0  0  0  0  0  0  0  0  0
    0.9760   -0.4082   -0.3559 N   0  0  0  0  0  0  0  0  0  0  0  0
    0.6705   -1.7291    0.1965 C   0  0  0  0  0  0  0  0  0  0  0  0
    0.8519   -1.7612    1.7186 C   0  0  0  0  0  0  0  0  0  0  0  0
   -0.1599   -0.8946    2.4113 C   0  0  0  0  0  0  0  0  0  0  0  0
    0.0431    0.3928    2.9000 C   0  0  0  0  0  0  0  0  0  0  0  0
   -1.1060    0.8900    3.4122 N   0  0  0  0  0  0  0  0  0  0  0  0
   -2.0333   -0.0688    3.2442 C   0  0  0  0  0  0  0  0  0  0  0  0
   -3.3792   -0.0152    3.6043 C   0  0  0  0  0  0  0  0  0  0  0  0
   -4.1805   -1.1368    3.3219 C   0  0  0  0  0  0  0  0  0  0  0  0
   -3.6254   -2.2728    2.6916 C   0  0  0  0  0  0  0  0  0  0  0  0
   -2.2638   -2.2982    2.3385 C   0  0  0  0  0  0  0  0  0  0  0  0
   -1.4945   -1.1724    2.6336 C   0  0  0  0  0  0  0  0  0  0  0  0
    2.7111    0.4313   -4.3767 H   0  0  0  0  0  0  0  0  0  0  0  0
    2.9973    2.1910   -4.0782 H   0  0  0  0  0  0  0  0  0  0  0  0
    2.1385    1.6478   -5.5729 H   0  0  0  0  0  0  0  0  0  0  0  0
    0.2467    0.7922   -4.2203 H   0  0  0  0  0  0  0  0  0  0  0  0
    0.9689    3.7155   -3.5578 H   0  0  0  0  0  0  0  0  0  0  0  0
   -0.6691    2.9648   -3.4044 H   0  0  0  0  0  0  0  0  0  0  0  0
    0.1077    3.1050   -5.0218 H   0  0  0  0  0  0  0  0  0  0  0  0
    1.3199    0.3500    0.2755 H   0  0  0  0  0  0  0  0  0  0  0  0
   -0.3740   -2.0097   -0.0619 H   0  0  0  0  0  0  0  0  0  0  0  0
    1.3526   -2.4784   -0.2600 H   0  0  0  0  0  0  0  0  0  0  0  0
    1.8798   -1.4297    1.9821 H   0  0  0  0  0  0  0  0  0  0  0  0
    0.7361   -2.8067    2.0763 H   0  0  0  0  0  0  0  0  0  0  0  0
    0.9776    0.9379    2.8739 H   0  0  0  0  0  0  0  0  0  0  0  0
   -1.2428    1.8322    3.8410 H   0  0  0  0  0  0  0  0  0  0  0  0
   -3.7962    0.8609    4.0838 H   0  0  0  0  0  0  0  0  0  0  0  0
   -5.2294   -1.1283    3.5880 H   0  0  0  0  0  0  0  0  0  0  0  0
   -4.2517   -3.1291    2.4781 H   0  0  0  0  0  0  0  0  0  0  0  0
   -1.8322   -3.1645    1.8543 H   0  0  0  0  0  0  0  0  0  0  0  0
  1  2  1  0
  2  3  1  0
  2  4  1  0
  4  5  2  0
  4  6  1  0
  6  7  2  0
  6  8  1  0
  8  9  1  0
  9 10  1  0
 10 11  1  0
 11 12  2  0
 12 13  1  0
 13 14  1  0
 14 15  2  0
 15 16  1  0
 16 17  2  0
 17 18  1  0
 18 19  2  0
 19 11  1  0
 19 14  1  0
  1 20  1  0
  1 21  1  0
  1 22  1  0
  2 23  1  0
  3 24  1  0
  3 25  1  0
  3 26  1  0
  8 27  1  0
  9 28  1  0
  9 29  1  0
 10 30  1  0
 10 31  1  0
 12 32  1  0
 13 33  1  0
 15 34  1  0
 16 35  1  0
 17 36  1  0
 18 37  1  0
M  END
>  <UniqueID>  (111) 
110

>  <SMILES>  (111) 
CC(C)C(=O)C(=O)NCCc1c[nH]c2ccccc12

>  <Energy>  (111) 
59.52198375487434

>  <Genealogy>  (111) 
CC(C)C(=O)C(=O)NCCc1c[nH]c2ccccc12 (3D coordinates assigned)
CC(C)C(=O)C(=O)NCCc1c[nH]c2ccccc12 (optimized conformer: 59.52198375487434 kcal/mol)

$$$$
untitled_line_111
     RDKit          3D

 25 26  0  0  0  0  0  0  0  0999 V2000
    2.9737   -0.1795    0.7939 N   0  0  0  0  0  4  0  0  0  0  0  0
    2.3342   -0.9954   -0.2400 C   0  0  0  0  0  0  0  0  0  0  0  0
    1.5706   -0.1343   -1.2568 C   0  0  0  0  0  0  0  0  0  0  0  0
    0.3910    0.5519   -0.6318 C   0  0  0  0  0  0  0  0  0  0  0  0
    0.3364    1.8702   -0.1886 C   0  0  0  0  0  0  0  0  0  0  0  0
   -0.8668    2.1299    0.3723 N   0  0  0  0  0  0  0  0  0  0  0  0
   -1.5681    0.9854    0.2943 C   0  0  0  0  0  0  0  0  0  0  0  0
   -2.8641    0.7553    0.7541 C   0  0  0  0  0  0  0  0  0  0  0  0
   -3.4044   -0.5322    0.5804 C   0  0  0  0  0  0  0  0  0  0  0  0
   -2.6452   -1.5496   -0.0396 C   0  0  0  0  0  0  0  0  0  0  0  0
   -1.3390   -1.2888   -0.4926 C   0  0  0  0  0  0  0  0  0  0  0  0
   -0.8321   -0.0021   -0.3091 C   0  0  0  0  0  0  0  0  0  0  0  0
    3.5958    0.5381    0.3558 H   0  0  0  0  0  0  0  0  0  0  0  0
    2.2502    0.2898    1.3848 H   0  0  0  0  0  0  0  0  0  0  0  0
    3.5525   -0.7987    1.4060 H   0  0  0  0  0  0  0  0  0  0  0  0
    3.1148   -1.5729   -0.7827 H   0  0  0  0  0  0  0  0  0  0  0  0
    1.6430   -1.7276    0.2334 H   0  0  0  0  0  0  0  0  0  0  0  0
    2.2544    0.6206   -1.7016 H   0  0  0  0  0  0  0  0  0  0  0  0
    1.2116   -0.7840   -2.0835 H   0  0  0  0  0  0  0  0  0  0  0  0
    1.1371    2.5945   -0.2629 H   0  0  0  0  0  0  0  0  0  0  0  0
   -1.1794    3.0343    0.7903 H   0  0  0  0  0  0  0  0  0  0  0  0
   -3.4367    1.5401    1.2313 H   0  0  0  0  0  0  0  0  0  0  0  0
   -4.4077   -0.7448    0.9259 H   0  0  0  0  0  0  0  0  0  0  0  0
   -3.0706   -2.5366   -0.1663 H   0  0  0  0  0  0  0  0  0  0  0  0
   -0.7510   -2.0638   -0.9668 H   0  0  0  0  0  0  0  0  0  0  0  0
  1  2  1  0
  2  3  1  0
  3  4  1  0
  4  5  2  0
  5  6  1  0
  6  7  1  0
  7  8  2  0
  8  9  1  0
  9 10  2  0
 10 11  1  0
 11 12  2  0
 12  4  1  0
 12  7  1  0
  1 13  1  0
  1 14  1  0
  1 15  1  0
  2 16  1  0
  2 17  1  0
  3 18  1  0
  3 19  1  0
  5 20  1  0
  6 21  1  0
  8 22  1  0
  9 23  1  0
 10 24  1  0
 11 25  1  0
M  CHG  1   1   1
M  END
>  <UniqueID>  (112) 
111

>  <SMILES>  (112) 
[NH3+]CCc1c[nH]c2ccccc12

>  <Energy>  (112) 
53.91983834758034

>  <Genealogy>  (112) 
[NH3+]CCc1c[nH]c2ccccc12 (protonated)
[NH3+]CCc1c[nH]c2ccccc12 (3D coordinates assigned)
[NH3+]CCc1c[nH]c2ccccc12 (optimized conformer: 53.91983834758034 kcal/mol)

$$$$
untitled_line_112
     RDKit          3D

 35 37  0  0  0  0  0  0  0  0999 V2000
   -0.7782    1.2317   -3.4869 C   0  0  0  0  0  0  0  0  0  0  0  0
   -1.1927    0.1342   -4.2149 C   0  0  0  0  0  0  0  0  0  0  0  0
   -0.8660   -0.9678   -3.5795 O   0  0  0  0  0  0  0  0  0  0  0  0
   -0.2499   -0.6404   -2.4675 C   0  0  0  0  0  0  0  0  0  0  0  0
    0.2474   -1.6318   -1.4601 C   0  0  0  0  0  0  0  0  0  0  0  0
   -0.7641   -1.8491   -0.4138 N   0  0  0  0  0  4  0  0  0  0  0  0
   -0.3203   -2.8270    0.5989 C   0  0  0  0  0  0  0  0  0  0  0  0
    0.6793   -2.2450    1.6171 C   0  0  0  0  0  0  0  0  0  0  0  0
    0.0645   -1.1602    2.4547 C   0  0  0  0  0  0  0  0  0  0  0  0
   -0.8454   -1.3363    3.4931 C   0  0  0  0  0  0  0  0  0  0  0  0
   -1.2454   -0.1394    3.9791 N   0  0  0  0  0  0  0  0  0  0  0  0
   -0.6030    0.7908    3.2517 C   0  0  0  0  0  0  0  0  0  0  0  0
   -0.7109    2.1760    3.3683 C   0  0  0  0  0  0  0  0  0  0  0  0
    0.0403    2.9710    2.4836 C   0  0  0  0  0  0  0  0  0  0  0  0
    0.8721    2.3708    1.5128 C   0  0  0  0  0  0  0  0  0  0  0  0
    0.9616    0.9703    1.4183 C   0  0  0  0  0  0  0  0  0  0  0  0
    0.2055    0.2073    2.3094 C   0  0  0  0  0  0  0  0  0  0  0  0
   -0.1709    0.7331   -2.3548 C   0  0  0  0  0  0  0  0  0  0  0  0
   -0.9081    2.2730   -3.7496 H   0  0  0  0  0  0  0  0  0  0  0  0
   -1.7107    0.1614   -5.1642 H   0  0  0  0  0  0  0  0  0  0  0  0
    1.1925   -1.2461   -1.0248 H   0  0  0  0  0  0  0  0  0  0  0  0
    0.4714   -2.5878   -1.9831 H   0  0  0  0  0  0  0  0  0  0  0  0
   -1.0169   -0.9401    0.0378 H   0  0  0  0  0  0  0  0  0  0  0  0
   -1.6286   -2.2288   -0.8673 H   0  0  0  0  0  0  0  0  0  0  0  0
   -1.2082   -3.2033    1.1552 H   0  0  0  0  0  0  0  0  0  0  0  0
    0.1378   -3.7136    0.1060 H   0  0  0  0  0  0  0  0  0  0  0  0
    1.5932   -1.8750    1.1109 H   0  0  0  0  0  0  0  0  0  0  0  0
    1.0043   -3.0635    2.2947 H   0  0  0  0  0  0  0  0  0  0  0  0
   -1.2047   -2.2883    3.8618 H   0  0  0  0  0  0  0  0  0  0  0  0
   -1.9273    0.0246    4.7529 H   0  0  0  0  0  0  0  0  0  0  0  0
   -1.3548    2.6268    4.1123 H   0  0  0  0  0  0  0  0  0  0  0  0
   -0.0215    4.0497    2.5460 H   0  0  0  0  0  0  0  0  0  0  0  0
    1.4437    2.9921    0.8357 H   0  0  0  0  0  0  0  0  0  0  0  0
    1.5974    0.5083    0.6759 H   0  0  0  0  0  0  0  0  0  0  0  0
    0.2687    1.3019   -1.5465 H   0  0  0  0  0  0  0  0  0  0  0  0
  1  2  2  0
  2  3  1  0
  3  4  1  0
  4  5  1  0
  5  6  1  0
  6  7  1  0
  7  8  1  0
  8  9  1  0
  9 10  2  0
 10 11  1  0
 11 12  1  0
 12 13  2  0
 13 14  1  0
 14 15  2  0
 15 16  1  0
 16 17  2  0
  4 18  2  0
 18  1  1  0
 17  9  1  0
 17 12  1  0
  1 19  1  0
  2 20  1  0
  5 21  1  0
  5 22  1  0
  6 23  1  0
  6 24  1  0
  7 25  1  0
  7 26  1  0
  8 27  1  0
  8 28  1  0
 10 29  1  0
 11 30  1  0
 13 31  1  0
 14 32  1  0
 15 33  1  0
 16 34  1  0
 18 35  1  0
M  CHG  1   6   1
M  END
>  <UniqueID>  (113) 
112

>  <SMILES>  (113) 
c1coc(C[NH2+]CCc2c[nH]c3ccccc23)c1

>  <Energy>  (113) 
91.70263302147848

>  <Genealogy>  (113) 
c1coc(C[NH2+]CCc2c[nH]c3ccccc23)c1 (protonated)
c1coc(C[NH2+]CCc2c[nH]c3ccccc23)c1 (3D coordinates assigned)
c1coc(C[NH2+]CCc2c[nH]c3ccccc23)c1 (optimized conformer: 91.70263302147848 kcal/mol)

$$$$
untitled_line_113
     RDKit          3D

 49 51  0  0  0  0  0  0  0  0999 V2000
   -0.8187   -1.0276    3.3403 C   0  0  0  0  0  0  0  0  0  0  0  0
   -0.6032   -2.3967    2.7593 C   0  0  0  0  0  0  0  0  0  0  0  0
   -1.6349   -3.3493    2.8008 C   0  0  0  0  0  0  0  0  0  0  0  0
   -1.4439   -4.6200    2.2554 C   0  0  0  0  0  0  0  0  0  0  0  0
   -0.2281   -4.9470    1.6549 C   0  0  0  0  0  0  0  0  0  0  0  0
    0.8072   -4.0104    1.6101 C   0  0  0  0  0  0  0  0  0  0  0  0
    0.6347   -2.7290    2.1728 C   0  0  0  0  0  0  0  0  0  0  0  0
    1.6632   -1.7697    2.1852 O   0  0  0  0  0  0  0  0  0  0  0  0
    2.9223   -1.8850    1.5208 C   0  0  0  0  0  0  0  0  0  0  0  0
    2.7735   -1.6366    0.0090 C   0  0  2  0  0  0  0  0  0  0  0  0
    3.9887   -1.9037   -0.6456 O   0  0  0  0  0  0  0  0  0  0  0  0
    2.2976   -0.1951   -0.2762 C   0  0  0  0  0  0  0  0  0  0  0  0
    2.1051    0.0289   -1.7195 N   0  0  0  0  0  4  0  0  0  0  0  0
    1.6275    1.3952   -2.0105 C   0  0  0  0  0  0  0  0  0  0  0  0
    0.1194    1.5829   -1.7572 C   0  0  0  0  0  0  0  0  0  0  0  0
   -0.7141    0.7841   -2.7171 C   0  0  0  0  0  0  0  0  0  0  0  0
   -0.9594    1.0968   -4.0508 C   0  0  0  0  0  0  0  0  0  0  0  0
   -1.7035    0.1298   -4.6336 N   0  0  0  0  0  0  0  0  0  0  0  0
   -1.9232   -0.7940   -3.6822 C   0  0  0  0  0  0  0  0  0  0  0  0
   -2.6318   -1.9870   -3.8138 C   0  0  0  0  0  0  0  0  0  0  0  0
   -2.7285   -2.8219   -2.6864 C   0  0  0  0  0  0  0  0  0  0  0  0
   -2.1191   -2.4520   -1.4670 C   0  0  0  0  0  0  0  0  0  0  0  0
   -2.2243   -3.2666   -0.3905 F   0  0  0  0  0  0  0  0  0  0  0  0
   -1.4067   -1.2431   -1.3631 C   0  0  0  0  0  0  0  0  0  0  0  0
   -1.3325   -0.4326   -2.4976 C   0  0  0  0  0  0  0  0  0  0  0  0
   -1.8526   -0.9045    3.7273 H   0  0  0  0  0  0  0  0  0  0  0  0
   -0.1083   -0.8610    4.1771 H   0  0  0  0  0  0  0  0  0  0  0  0
   -0.6465   -0.2587    2.5575 H   0  0  0  0  0  0  0  0  0  0  0  0
   -2.5890   -3.1092    3.2534 H   0  0  0  0  0  0  0  0  0  0  0  0
   -2.2432   -5.3489    2.2894 H   0  0  0  0  0  0  0  0  0  0  0  0
   -0.0862   -5.9302    1.2252 H   0  0  0  0  0  0  0  0  0  0  0  0
    1.7367   -4.3003    1.1427 H   0  0  0  0  0  0  0  0  0  0  0  0
    3.6111   -1.1256    1.9489 H   0  0  0  0  0  0  0  0  0  0  0  0
    3.3806   -2.8767    1.7192 H   0  0  0  0  0  0  0  0  0  0  0  0
    2.0124   -2.3405   -0.3902 H   0  0  0  0  0  0  0  0  0  0  0  0
    4.6651   -1.2665   -0.2948 H   0  0  0  0  0  0  0  0  0  0  0  0
    1.3431   -0.0295    0.2659 H   0  0  0  0  0  0  0  0  0  0  0  0
    3.0474    0.5249    0.1230 H   0  0  0  0  0  0  0  0  0  0  0  0
    3.0271   -0.0925   -2.2003 H   0  0  0  0  0  0  0  0  0  0  0  0
    1.4465   -0.6829   -2.1104 H   0  0  0  0  0  0  0  0  0  0  0  0
    1.8380    1.6367   -3.0768 H   0  0  0  0  0  0  0  0  0  0  0  0
    2.1924    2.1403   -1.4064 H   0  0  0  0  0  0  0  0  0  0  0  0
   -0.1473    1.3329   -0.7111 H   0  0  0  0  0  0  0  0  0  0  0  0
   -0.1269    2.6575   -1.8964 H   0  0  0  0  0  0  0  0  0  0  0  0
   -0.6037    1.9788   -4.5674 H   0  0  0  0  0  0  0  0  0  0  0  0
   -2.0294    0.1045   -5.6253 H   0  0  0  0  0  0  0  0  0  0  0  0
   -3.0921   -2.2642   -4.7533 H   0  0  0  0  0  0  0  0  0  0  0  0
   -3.2729   -3.7547   -2.7553 H   0  0  0  0  0  0  0  0  0  0  0  0
   -0.9349   -0.9581   -0.4321 H   0  0  0  0  0  0  0  0  0  0  0  0
  1  2  1  0
  2  3  2  0
  3  4  1  0
  4  5  2  0
  5  6  1  0
  6  7  2  0
  7  8  1  0
  8  9  1  0
  9 10  1  0
 10 11  1  0
 10 12  1  0
 12 13  1  0
 13 14  1  0
 14 15  1  0
 15 16  1  0
 16 17  2  0
 17 18  1  0
 18 19  1  0
 19 20  2  0
 20 21  1  0
 21 22  2  0
 22 23  1  0
 22 24  1  0
 24 25  2  0
  7  2  1  0
 25 16  1  0
 25 19  1  0
  1 26  1  0
  1 27  1  0
  1 28  1  0
  3 29  1  0
  4 30  1  0
  5 31  1  0
  6 32  1  0
  9 33  1  0
  9 34  1  0
 10 35  1  6
 11 36  1  0
 12 37  1  0
 12 38  1  0
 13 39  1  0
 13 40  1  0
 14 41  1  0
 14 42  1  0
 15 43  1  0
 15 44  1  0
 17 45  1  0
 18 46  1  0
 20 47  1  0
 21 48  1  0
 24 49  1  0
M  CHG  1  13   1
M  END
>  <UniqueID>  (114) 
113

>  <SMILES>  (114) 
Cc1ccccc1OC[C@H](O)C[NH2+]CCc1c[nH]c2ccc(F)cc12

>  <Energy>  (114) 
76.92004658614526

>  <Genealogy>  (114) 
Cc1ccccc1OCC(O)C[NH2+]CCc1c[nH]c2ccc(F)cc12 (protonated)
Cc1ccccc1OC[C@H](O)C[NH2+]CCc1c[nH]c2ccc(F)cc12 (chirality)
Cc1ccccc1OC[C@H](O)C[NH2+]CCc1c[nH]c2ccc(F)cc12 (3D coordinates assigned)
Cc1ccccc1OC[C@H](O)C[NH2+]CCc1c[nH]c2ccc(F)cc12 (optimized conformer: 76.92004658614526 kcal/mol)

$$$$
untitled_line_114
     RDKit          3D

 42 45  0  0  0  0  0  0  0  0999 V2000
    5.9878    0.0803   -1.0177 C   0  0  0  0  0  0  0  0  0  0  0  0
    5.2853    1.2508   -0.6537 C   0  0  0  0  0  0  0  0  0  0  0  0
    4.0475    1.1623    0.0090 C   0  0  0  0  0  0  0  0  0  0  0  0
    3.5512   -0.1104    0.2919 C   0  0  0  0  0  0  0  0  0  0  0  0
    2.3849   -0.5193    0.9082 C   0  0  0  0  0  0  0  0  0  0  0  0
    1.2651    0.3432    1.4081 C   0  0  0  0  0  0  0  0  0  0  0  0
    0.3330    0.7363    0.2562 C   0  0  0  0  0  0  0  0  0  0  0  0
   -0.7796    1.5669    0.7460 N   0  0  0  0  0  4  0  0  0  0  0  0
   -1.6511    2.0216   -0.3506 C   0  0  0  0  0  0  0  0  0  0  0  0
   -2.4564    0.8919   -0.9322 C   0  0  0  0  0  0  0  0  0  0  0  0
   -2.1955    0.2106   -2.1175 C   0  0  0  0  0  0  0  0  0  0  0  0
   -3.0947   -0.7836   -2.2978 N   0  0  0  0  0  0  0  0  0  0  0  0
   -3.9156   -0.7398   -1.2339 C   0  0  0  0  0  0  0  0  0  0  0  0
   -4.9963   -1.5786   -0.9651 C   0  0  0  0  0  0  0  0  0  0  0  0
   -5.7178   -1.3610    0.2232 C   0  0  0  0  0  0  0  0  0  0  0  0
   -5.3461   -0.3231    1.1066 C   0  0  0  0  0  0  0  0  0  0  0  0
   -4.2498    0.5072    0.8099 C   0  0  0  0  0  0  0  0  0  0  0  0
   -3.5557    0.2682   -0.3763 C   0  0  0  0  0  0  0  0  0  0  0  0
    2.4093   -1.9104    0.8765 C   0  0  0  0  0  0  0  0  0  0  0  0
    3.5453   -2.3489    0.2872 N   0  0  0  0  0  0  0  0  0  0  0  0
    4.2307   -1.2470   -0.0650 C   0  0  0  0  0  0  0  0  0  0  0  0
    5.4579   -1.1897   -0.7242 C   0  0  0  0  0  0  0  0  0  0  0  0
    6.9383    0.1607   -1.5289 H   0  0  0  0  0  0  0  0  0  0  0  0
    5.7010    2.2221   -0.8877 H   0  0  0  0  0  0  0  0  0  0  0  0
    3.5017    2.0546    0.2867 H   0  0  0  0  0  0  0  0  0  0  0  0
    1.6863    1.2553    1.8827 H   0  0  0  0  0  0  0  0  0  0  0  0
    0.6911   -0.2122    2.1812 H   0  0  0  0  0  0  0  0  0  0  0  0
    0.9182    1.2964   -0.5082 H   0  0  0  0  0  0  0  0  0  0  0  0
   -0.0620   -0.1929   -0.2119 H   0  0  0  0  0  0  0  0  0  0  0  0
   -0.3874    2.4153    1.2182 H   0  0  0  0  0  0  0  0  0  0  0  0
   -1.3426    1.0305    1.4475 H   0  0  0  0  0  0  0  0  0  0  0  0
   -2.3558    2.7900    0.0365 H   0  0  0  0  0  0  0  0  0  0  0  0
   -1.0505    2.5110   -1.1497 H   0  0  0  0  0  0  0  0  0  0  0  0
   -1.3850    0.4236   -2.8023 H   0  0  0  0  0  0  0  0  0  0  0  0
   -3.1331   -1.4541   -3.0974 H   0  0  0  0  0  0  0  0  0  0  0  0
   -5.2715   -2.3732   -1.6464 H   0  0  0  0  0  0  0  0  0  0  0  0
   -6.5623   -1.9941    0.4624 H   0  0  0  0  0  0  0  0  0  0  0  0
   -5.9077   -0.1658    2.0181 H   0  0  0  0  0  0  0  0  0  0  0  0
   -3.9589    1.3037    1.4823 H   0  0  0  0  0  0  0  0  0  0  0  0
    1.6328   -2.5639    1.2523 H   0  0  0  0  0  0  0  0  0  0  0  0
    3.8222   -3.3427    0.1258 H   0  0  0  0  0  0  0  0  0  0  0  0
    5.9854   -2.0920   -1.0051 H   0  0  0  0  0  0  0  0  0  0  0  0
  1  2  2  0
  2  3  1  0
  3  4  2  0
  4  5  1  0
  5  6  1  0
  6  7  1  0
  7  8  1  0
  8  9  1  0
  9 10  1  0
 10 11  2  0
 11 12  1  0
 12 13  1  0
 13 14  2  0
 14 15  1  0
 15 16  2  0
 16 17  1  0
 17 18  2  0
  5 19  2  0
 19 20  1  0
 20 21  1  0
 21 22  2  0
 22  1  1  0
 21  4  1  0
 18 10  1  0
 18 13  1  0
  1 23  1  0
  2 24  1  0
  3 25  1  0
  6 26  1  0
  6 27  1  0
  7 28  1  0
  7 29  1  0
  8 30  1  0
  8 31  1  0
  9 32  1  0
  9 33  1  0
 11 34  1  0
 12 35  1  0
 14 36  1  0
 15 37  1  0
 16 38  1  0
 17 39  1  0
 19 40  1  0
 20 41  1  0
 22 42  1  0
M  CHG  1   8   1
M  END
>  <UniqueID>  (115) 
114

>  <SMILES>  (115) 
c1ccc2c(CC[NH2+]Cc3c[nH]c4ccccc34)c[nH]c2c1

>  <Energy>  (115) 
107.51702920050057

>  <Genealogy>  (115) 
c1ccc2c(CC[NH2+]Cc3c[nH]c4ccccc34)c[nH]c2c1 (protonated)
c1ccc2c(CC[NH2+]Cc3c[nH]c4ccccc34)c[nH]c2c1 (3D coordinates assigned)
c1ccc2c(CC[NH2+]Cc3c[nH]c4ccccc34)c[nH]c2c1 (optimized conformer: 107.51702920050057 kcal/mol)

$$$$
untitled_line_115
     RDKit          3D

 35 36  0  0  0  0  0  0  0  0999 V2000
   -4.2564   -0.1760    2.2423 C   0  0  0  0  0  0  0  0  0  0  0  0
   -4.0035    0.7723    1.0662 C   0  0  0  0  0  0  0  0  0  0  0  0
   -3.5535    2.1528    1.5551 C   0  0  0  0  0  0  0  0  0  0  0  0
   -2.9953    0.1860    0.1108 C   0  0  0  0  0  0  0  0  0  0  0  0
   -3.3566   -0.1000   -1.0633 O   0  0  0  0  0  0  0  0  0  0  0  0
   -1.6409   -0.0556    0.5251 N   0  0  0  0  0  0  0  0  0  0  0  0
   -0.6219   -0.5705   -0.3867 C   0  0  0  0  0  0  0  0  0  0  0  0
   -0.1602    0.5281   -1.3465 C   0  0  0  0  0  0  0  0  0  0  0  0
    0.9084    0.0122   -2.2625 C   0  0  0  0  0  0  0  0  0  0  0  0
    0.7212   -0.5413   -3.5256 C   0  0  0  0  0  0  0  0  0  0  0  0
    1.9004   -0.9677   -4.0332 N   0  0  0  0  0  0  0  0  0  0  0  0
    2.8270   -0.7002   -3.0964 C   0  0  0  0  0  0  0  0  0  0  0  0
    4.1923   -0.9770   -3.1547 C   0  0  0  0  0  0  0  0  0  0  0  0
    4.9818   -0.6283   -2.0435 C   0  0  0  0  0  0  0  0  0  0  0  0
    4.3951   -0.0214   -0.9105 C   0  0  0  0  0  0  0  0  0  0  0  0
    3.0139    0.2441   -0.8789 C   0  0  0  0  0  0  0  0  0  0  0  0
    2.2586   -0.1074   -1.9979 C   0  0  0  0  0  0  0  0  0  0  0  0
   -5.0620    0.2300    2.8906 H   0  0  0  0  0  0  0  0  0  0  0  0
   -3.3403   -0.3056    2.8568 H   0  0  0  0  0  0  0  0  0  0  0  0
   -4.5814   -1.1702    1.8675 H   0  0  0  0  0  0  0  0  0  0  0  0
   -4.9685    0.9052    0.5274 H   0  0  0  0  0  0  0  0  0  0  0  0
   -3.3734    2.8243    0.6883 H   0  0  0  0  0  0  0  0  0  0  0  0
   -4.3453    2.6081    2.1875 H   0  0  0  0  0  0  0  0  0  0  0  0
   -2.6207    2.0815    2.1539 H   0  0  0  0  0  0  0  0  0  0  0  0
   -1.3735    0.0996    1.5228 H   0  0  0  0  0  0  0  0  0  0  0  0
    0.2487   -0.9256    0.2077 H   0  0  0  0  0  0  0  0  0  0  0  0
   -1.0262   -1.4383   -0.9526 H   0  0  0  0  0  0  0  0  0  0  0  0
    0.2331    1.3907   -0.7667 H   0  0  0  0  0  0  0  0  0  0  0  0
   -1.0180    0.8885   -1.9535 H   0  0  0  0  0  0  0  0  0  0  0  0
   -0.2270   -0.6367   -4.0385 H   0  0  0  0  0  0  0  0  0  0  0  0
    2.0531   -1.4256   -4.9593 H   0  0  0  0  0  0  0  0  0  0  0  0
    4.6316   -1.4479   -4.0245 H   0  0  0  0  0  0  0  0  0  0  0  0
    6.0451   -0.8293   -2.0557 H   0  0  0  0  0  0  0  0  0  0  0  0
    5.0118    0.2394   -0.0604 H   0  0  0  0  0  0  0  0  0  0  0  0
    2.5572    0.7047   -0.0126 H   0  0  0  0  0  0  0  0  0  0  0  0
  1  2  1  0
  2  3  1  0
  2  4  1  0
  4  5  2  0
  4  6  1  0
  6  7  1  0
  7  8  1  0
  8  9  1  0
  9 10  2  0
 10 11  1  0
 11 12  1  0
 12 13  2  0
 13 14  1  0
 14 15  2  0
 15 16  1  0
 16 17  2  0
 17  9  1  0
 17 12  1  0
  1 18  1  0
  1 19  1  0
  1 20  1  0
  2 21  1  0
  3 22  1  0
  3 23  1  0
  3 24  1  0
  6 25  1  0
  7 26  1  0
  7 27  1  0
  8 28  1  0
  8 29  1  0
 10 30  1  0
 11 31  1  0
 13 32  1  0
 14 33  1  0
 15 34  1  0
 16 35  1  0
M  END
>  <UniqueID>  (116) 
115

>  <SMILES>  (116) 
CC(C)C(=O)NCCc1c[nH]c2ccccc12

>  <Energy>  (116) 
56.99420025697961

>  <Genealogy>  (116) 
CC(C)C(=O)NCCc1c[nH]c2ccccc12 (3D coordinates assigned)
CC(C)C(=O)NCCc1c[nH]c2ccccc12 (optimized conformer: 56.99420025697961 kcal/mol)

$$$$
untitled_line_116
     RDKit          3D

 52 55  0  0  0  0  0  0  0  0999 V2000
   -0.4234   -1.8884   -1.8628 O   0  0  0  0  0  0  0  0  0  0  0  0
    0.5007   -0.9563   -1.3641 C   0  0  2  0  0  0  0  0  0  0  0  0
   -0.2484    0.3105   -0.9088 C   0  0  0  0  0  0  0  0  0  0  0  0
   -1.1683    0.0143    0.2012 N   0  0  0  0  0  4  0  0  0  0  0  0
   -1.8657    1.2362    0.6352 C   0  0  0  0  0  0  0  0  0  0  0  0
   -2.7675    0.9740    1.8510 C   0  0  0  0  0  0  0  0  0  0  0  0
   -3.9106    0.0619    1.5126 C   0  0  0  0  0  0  0  0  0  0  0  0
   -3.9867   -1.3038    1.7698 C   0  0  0  0  0  0  0  0  0  0  0  0
   -5.1349   -1.8149    1.2697 N   0  0  0  0  0  0  0  0  0  0  0  0
   -5.7793   -0.7858    0.6923 C   0  0  0  0  0  0  0  0  0  0  0  0
   -7.0040   -0.8219    0.0269 C   0  0  0  0  0  0  0  0  0  0  0  0
   -7.4907    0.3797   -0.5199 C   0  0  0  0  0  0  0  0  0  0  0  0
   -6.7499    1.5759   -0.3929 C   0  0  0  0  0  0  0  0  0  0  0  0
   -5.5159    1.5820    0.2827 C   0  0  0  0  0  0  0  0  0  0  0  0
   -5.0613    0.3761    0.8168 C   0  0  0  0  0  0  0  0  0  0  0  0
    1.5293   -0.6236   -2.4600 C   0  0  0  0  0  0  0  0  0  0  0  0
    2.5246    0.2833   -1.9821 O   0  0  0  0  0  0  0  0  0  0  0  0
    3.5668   -0.0381   -1.0970 C   0  0  0  0  0  0  0  0  0  0  0  0
    3.8409   -1.3590   -0.6903 C   0  0  0  0  0  0  0  0  0  0  0  0
    4.8898   -1.6241    0.1945 C   0  0  0  0  0  0  0  0  0  0  0  0
    5.6813   -0.5761    0.6823 C   0  0  0  0  0  0  0  0  0  0  0  0
    6.7367   -0.8192    1.5698 C   0  0  0  0  0  0  0  0  0  0  0  0
    7.5080    0.2450    2.0375 C   0  0  0  0  0  0  0  0  0  0  0  0
    7.2180    1.5436    1.6140 C   0  0  0  0  0  0  0  0  0  0  0  0
    6.1904    1.7727    0.7508 N   0  0  0  0  0  4  0  0  0  0  0  0
    5.4182    0.7515    0.2762 C   0  0  0  0  0  0  0  0  0  0  0  0
    4.3630    1.0070   -0.6124 C   0  0  0  0  0  0  0  0  0  0  0  0
    0.0294   -2.7722   -1.8581 H   0  0  0  0  0  0  0  0  0  0  0  0
    1.0269   -1.3860   -0.4814 H   0  0  0  0  0  0  0  0  0  0  0  0
    0.4945    1.0725   -0.5807 H   0  0  0  0  0  0  0  0  0  0  0  0
   -0.8162    0.7281   -1.7715 H   0  0  0  0  0  0  0  0  0  0  0  0
   -0.6233   -0.3771    1.0055 H   0  0  0  0  0  0  0  0  0  0  0  0
   -1.8732   -0.6902   -0.1178 H   0  0  0  0  0  0  0  0  0  0  0  0
   -2.4789    1.6461   -0.1990 H   0  0  0  0  0  0  0  0  0  0  0  0
   -1.1224    2.0128    0.9246 H   0  0  0  0  0  0  0  0  0  0  0  0
   -2.1678    0.5364    2.6782 H   0  0  0  0  0  0  0  0  0  0  0  0
   -3.1762    1.9414    2.2139 H   0  0  0  0  0  0  0  0  0  0  0  0
   -3.2368   -1.8919    2.2827 H   0  0  0  0  0  0  0  0  0  0  0  0
   -5.4475   -2.8102    1.3142 H   0  0  0  0  0  0  0  0  0  0  0  0
   -7.5624   -1.7441   -0.0689 H   0  0  0  0  0  0  0  0  0  0  0  0
   -8.4381    0.3869   -1.0430 H   0  0  0  0  0  0  0  0  0  0  0  0
   -7.1334    2.4938   -0.8191 H   0  0  0  0  0  0  0  0  0  0  0  0
   -4.9422    2.4942    0.3823 H   0  0  0  0  0  0  0  0  0  0  0  0
    1.0053   -0.1476   -3.3162 H   0  0  0  0  0  0  0  0  0  0  0  0
    2.0062   -1.5477   -2.8505 H   0  0  0  0  0  0  0  0  0  0  0  0
    3.2540   -2.1910   -1.0517 H   0  0  0  0  0  0  0  0  0  0  0  0
    5.0827   -2.6469    0.4957 H   0  0  0  0  0  0  0  0  0  0  0  0
    6.9635   -1.8261    1.8995 H   0  0  0  0  0  0  0  0  0  0  0  0
    8.3255    0.0654    2.7238 H   0  0  0  0  0  0  0  0  0  0  0  0
    7.8150    2.3714    1.9755 H   0  0  0  0  0  0  0  0  0  0  0  0
    6.0006    2.7571    0.4541 H   0  0  0  0  0  0  0  0  0  0  0  0
    4.1538    2.0221   -0.9279 H   0  0  0  0  0  0  0  0  0  0  0  0
  1  2  1  0
  2  3  1  0
  3  4  1  0
  4  5  1  0
  5  6  1  0
  6  7  1  0
  7  8  2  0
  8  9  1  0
  9 10  1  0
 10 11  2  0
 11 12  1  0
 12 13  2  0
 13 14  1  0
 14 15  2  0
  2 16  1  0
 16 17  1  0
 17 18  1  0
 18 19  2  0
 19 20  1  0
 20 21  2  0
 21 22  1  0
 22 23  2  0
 23 24  1  0
 24 25  2  0
 25 26  1  0
 26 27  2  0
 15  7  1  0
 27 18  1  0
 15 10  1  0
 26 21  1  0
  1 28  1  0
  2 29  1  1
  3 30  1  0
  3 31  1  0
  4 32  1  0
  4 33  1  0
  5 34  1  0
  5 35  1  0
  6 36  1  0
  6 37  1  0
  8 38  1  0
  9 39  1  0
 11 40  1  0
 12 41  1  0
 13 42  1  0
 14 43  1  0
 16 44  1  0
 16 45  1  0
 19 46  1  0
 20 47  1  0
 22 48  1  0
 23 49  1  0
 24 50  1  0
 25 51  1  0
 27 52  1  0
M  CHG  2   4   1  25   1
M  END
>  <UniqueID>  (117) 
116

>  <SMILES>  (117) 
O[C@H](C[NH2+]CCc1c[nH]c2ccccc12)COc1ccc2ccc[nH+]c2c1

>  <Energy>  (117) 
85.49989836332465

>  <Genealogy>  (117) 
OC(C[NH2+]CCc1c[nH]c2ccccc12)COc1ccc2ccc[nH+]c2c1 (protonated)
O[C@H](C[NH2+]CCc1c[nH]c2ccccc12)COc1ccc2ccc[nH+]c2c1 (chirality)
O[C@H](C[NH2+]CCc1c[nH]c2ccccc12)COc1ccc2ccc[nH+]c2c1 (3D coordinates assigned)
O[C@H](C[NH2+]CCc1c[nH]c2ccccc12)COc1ccc2ccc[nH+]c2c1 (optimized conformer: 85.49989836332465 kcal/mol)

$$$$
untitled_line_117
     RDKit          3D

 42 44  0  0  0  0  0  0  0  0999 V2000
   -0.9246   -3.2015    1.6114 O   0  0  0  0  0  0  0  0  0  0  0  0
   -1.4372   -2.2903    0.6728 C   0  0  1  0  0  0  0  0  0  0  0  0
   -0.2783   -1.5104    0.0186 C   0  0  0  0  0  0  0  0  0  0  0  0
    0.4556   -0.6674    0.9832 N   0  0  0  0  0  4  0  0  0  0  0  0
   -0.2031    0.6353    1.1915 C   0  0  0  0  0  0  0  0  0  0  0  0
    0.5221    1.4746    2.2546 C   0  0  0  0  0  0  0  0  0  0  0  0
    1.8928    1.8869    1.8027 C   0  0  0  0  0  0  0  0  0  0  0  0
    3.0982    1.2863    2.1539 C   0  0  0  0  0  0  0  0  0  0  0  0
    4.1278    1.8841    1.5118 N   0  0  0  0  0  0  0  0  0  0  0  0
    3.5819    2.8504    0.7529 C   0  0  0  0  0  0  0  0  0  0  0  0
    4.2451    3.7292   -0.1026 C   0  0  0  0  0  0  0  0  0  0  0  0
    3.4701    4.6601   -0.8186 C   0  0  0  0  0  0  0  0  0  0  0  0
    2.0658    4.6898   -0.6669 C   0  0  0  0  0  0  0  0  0  0  0  0
    1.4234    3.7895    0.2026 C   0  0  0  0  0  0  0  0  0  0  0  0
    2.2188    2.8807    0.9009 C   0  0  0  0  0  0  0  0  0  0  0  0
   -2.2271   -3.0252   -0.3892 C   0  0  0  0  0  0  0  0  0  0  0  0
   -3.4443   -2.4979   -0.8556 C   0  0  0  0  0  0  0  0  0  0  0  0
   -4.1617   -3.1575   -1.8584 C   0  0  0  0  0  0  0  0  0  0  0  0
   -3.6669   -4.3416   -2.4110 C   0  0  0  0  0  0  0  0  0  0  0  0
   -2.4512   -4.8662   -1.9650 C   0  0  0  0  0  0  0  0  0  0  0  0
   -1.7301   -4.2103   -0.9626 C   0  0  0  0  0  0  0  0  0  0  0  0
   -1.6926   -3.5092    2.1608 H   0  0  0  0  0  0  0  0  0  0  0  0
   -2.1067   -1.5711    1.1959 H   0  0  0  0  0  0  0  0  0  0  0  0
    0.4289   -2.2454   -0.4289 H   0  0  0  0  0  0  0  0  0  0  0  0
   -0.6650   -0.8919   -0.8238 H   0  0  0  0  0  0  0  0  0  0  0  0
    1.4118   -0.4984    0.5925 H   0  0  0  0  0  0  0  0  0  0  0  0
    0.5643   -1.1663    1.8969 H   0  0  0  0  0  0  0  0  0  0  0  0
   -0.2405    1.2048    0.2355 H   0  0  0  0  0  0  0  0  0  0  0  0
   -1.2481    0.4881    1.5375 H   0  0  0  0  0  0  0  0  0  0  0  0
    0.5942    0.9007    3.2038 H   0  0  0  0  0  0  0  0  0  0  0  0
   -0.0753    2.3876    2.4646 H   0  0  0  0  0  0  0  0  0  0  0  0
    3.2128    0.4507    2.8320 H   0  0  0  0  0  0  0  0  0  0  0  0
    5.1392    1.6345    1.5846 H   0  0  0  0  0  0  0  0  0  0  0  0
    5.3210    3.6963   -0.2151 H   0  0  0  0  0  0  0  0  0  0  0  0
    3.9531    5.3567   -1.4913 H   0  0  0  0  0  0  0  0  0  0  0  0
    1.4798    5.4091   -1.2241 H   0  0  0  0  0  0  0  0  0  0  0  0
    0.3480    3.8054    0.3225 H   0  0  0  0  0  0  0  0  0  0  0  0
   -3.8375   -1.5762   -0.4449 H   0  0  0  0  0  0  0  0  0  0  0  0
   -5.1001   -2.7484   -2.2097 H   0  0  0  0  0  0  0  0  0  0  0  0
   -4.2231   -4.8499   -3.1880 H   0  0  0  0  0  0  0  0  0  0  0  0
   -2.0654   -5.7797   -2.3988 H   0  0  0  0  0  0  0  0  0  0  0  0
   -0.7846   -4.6245   -0.6352 H   0  0  0  0  0  0  0  0  0  0  0  0
  1  2  1  0
  2  3  1  0
  3  4  1  0
  4  5  1  0
  5  6  1  0
  6  7  1  0
  7  8  2  0
  8  9  1  0
  9 10  1  0
 10 11  2  0
 11 12  1  0
 12 13  2  0
 13 14  1  0
 14 15  2  0
  2 16  1  0
 16 17  2  0
 17 18  1  0
 18 19  2  0
 19 20  1  0
 20 21  2  0
 15  7  1  0
 21 16  1  0
 15 10  1  0
  1 22  1  0
  2 23  1  1
  3 24  1  0
  3 25  1  0
  4 26  1  0
  4 27  1  0
  5 28  1  0
  5 29  1  0
  6 30  1  0
  6 31  1  0
  8 32  1  0
  9 33  1  0
 11 34  1  0
 12 35  1  0
 13 36  1  0
 14 37  1  0
 17 38  1  0
 18 39  1  0
 19 40  1  0
 20 41  1  0
 21 42  1  0
M  CHG  1   4   1
M  END
>  <UniqueID>  (118) 
117

>  <SMILES>  (118) 
O[C@@H](C[NH2+]CCc1c[nH]c2ccccc12)c1ccccc1

>  <Energy>  (118) 
73.98566367044201

>  <Genealogy>  (118) 
OC(C[NH2+]CCc1c[nH]c2ccccc12)c1ccccc1 (protonated)
O[C@@H](C[NH2+]CCc1c[nH]c2ccccc12)c1ccccc1 (chirality)
O[C@@H](C[NH2+]CCc1c[nH]c2ccccc12)c1ccccc1 (3D coordinates assigned)
O[C@@H](C[NH2+]CCc1c[nH]c2ccccc12)c1ccccc1 (optimized conformer: 73.98566367044201 kcal/mol)

$$$$
untitled_line_118
     RDKit          3D

 42 44  0  0  0  0  0  0  0  0999 V2000
    5.2913    2.7240    0.0964 C   0  0  0  0  0  0  0  0  0  0  0  0
    5.7963    1.4103   -0.1193 O   0  0  0  0  0  0  0  0  0  0  0  0
    5.0482    0.2358    0.0511 C   0  0  0  0  0  0  0  0  0  0  0  0
    5.6727   -0.9915   -0.1995 C   0  0  0  0  0  0  0  0  0  0  0  0
    4.9681   -2.1887   -0.0526 C   0  0  0  0  0  0  0  0  0  0  0  0
    3.6317   -2.1707    0.3521 C   0  0  0  0  0  0  0  0  0  0  0  0
    2.9927   -0.9516    0.6244 C   0  0  0  0  0  0  0  0  0  0  0  0
    1.5395   -0.9294    1.0241 C   0  0  0  0  0  0  0  0  0  0  0  0
    0.6809   -0.8289   -0.1650 N   0  0  0  0  0  4  0  0  0  0  0  0
   -0.7377   -0.8035    0.2204 C   0  0  0  0  0  0  0  0  0  0  0  0
   -1.6351   -0.6968   -1.0182 C   0  0  0  0  0  0  0  0  0  0  0  0
   -3.0806   -0.6652   -0.6212 C   0  0  0  0  0  0  0  0  0  0  0  0
   -3.9392   -1.7564   -0.5282 C   0  0  0  0  0  0  0  0  0  0  0  0
   -5.1500   -1.3660   -0.0681 N   0  0  0  0  0  0  0  0  0  0  0  0
   -5.0583   -0.0412    0.1421 C   0  0  0  0  0  0  0  0  0  0  0  0
   -6.0489    0.8069    0.6356 C   0  0  0  0  0  0  0  0  0  0  0  0
   -5.7284    2.1672    0.7987 C   0  0  0  0  0  0  0  0  0  0  0  0
   -4.4388    2.6430    0.4723 C   0  0  0  0  0  0  0  0  0  0  0  0
   -3.4583    1.7635   -0.0218 C   0  0  0  0  0  0  0  0  0  0  0  0
   -3.8078    0.4220   -0.1783 C   0  0  0  0  0  0  0  0  0  0  0  0
    3.6999    0.2511    0.4603 C   0  0  0  0  0  0  0  0  0  0  0  0
    4.4410    2.9236   -0.5895 H   0  0  0  0  0  0  0  0  0  0  0  0
    6.0949    3.4599   -0.1109 H   0  0  0  0  0  0  0  0  0  0  0  0
    4.9668    2.8399    1.1521 H   0  0  0  0  0  0  0  0  0  0  0  0
    6.7082   -1.0164   -0.5149 H   0  0  0  0  0  0  0  0  0  0  0  0
    5.4580   -3.1321   -0.2563 H   0  0  0  0  0  0  0  0  0  0  0  0
    3.0947   -3.1060    0.4522 H   0  0  0  0  0  0  0  0  0  0  0  0
    1.3570   -0.0662    1.7038 H   0  0  0  0  0  0  0  0  0  0  0  0
    1.2980   -1.8548    1.5949 H   0  0  0  0  0  0  0  0  0  0  0  0
    0.8552   -1.6546   -0.7860 H   0  0  0  0  0  0  0  0  0  0  0  0
    0.9130    0.0513   -0.6837 H   0  0  0  0  0  0  0  0  0  0  0  0
   -0.9334    0.0686    0.8854 H   0  0  0  0  0  0  0  0  0  0  0  0
   -0.9971   -1.7347    0.7742 H   0  0  0  0  0  0  0  0  0  0  0  0
   -1.4567   -1.5670   -1.6863 H   0  0  0  0  0  0  0  0  0  0  0  0
   -1.3892    0.2267   -1.5852 H   0  0  0  0  0  0  0  0  0  0  0  0
   -3.6874   -2.7802   -0.7725 H   0  0  0  0  0  0  0  0  0  0  0  0
   -5.9801   -1.9761    0.1025 H   0  0  0  0  0  0  0  0  0  0  0  0
   -7.0321    0.4318    0.8889 H   0  0  0  0  0  0  0  0  0  0  0  0
   -6.4740    2.8528    1.1797 H   0  0  0  0  0  0  0  0  0  0  0  0
   -4.2027    3.6908    0.6051 H   0  0  0  0  0  0  0  0  0  0  0  0
   -2.4670    2.1203   -0.2696 H   0  0  0  0  0  0  0  0  0  0  0  0
    3.1944    1.1886    0.6503 H   0  0  0  0  0  0  0  0  0  0  0  0
  1  2  1  0
  2  3  1  0
  3  4  2  0
  4  5  1  0
  5  6  2  0
  6  7  1  0
  7  8  1  0
  8  9  1  0
  9 10  1  0
 10 11  1  0
 11 12  1  0
 12 13  2  0
 13 14  1  0
 14 15  1  0
 15 16  2  0
 16 17  1  0
 17 18  2  0
 18 19  1  0
 19 20  2  0
  7 21  2  0
 21  3  1  0
 20 12  1  0
 20 15  1  0
  1 22  1  0
  1 23  1  0
  1 24  1  0
  4 25  1  0
  5 26  1  0
  6 27  1  0
  8 28  1  0
  8 29  1  0
  9 30  1  0
  9 31  1  0
 10 32  1  0
 10 33  1  0
 11 34  1  0
 11 35  1  0
 13 36  1  0
 14 37  1  0
 16 38  1  0
 17 39  1  0
 18 40  1  0
 19 41  1  0
 21 42  1  0
M  CHG  1   9   1
M  END
>  <UniqueID>  (119) 
118

>  <SMILES>  (119) 
COc1cccc(C[NH2+]CCc2c[nH]c3ccccc23)c1

>  <Energy>  (119) 
71.51202766192829

>  <Genealogy>  (119) 
COc1cccc(C[NH2+]CCc2c[nH]c3ccccc23)c1 (protonated)
COc1cccc(C[NH2+]CCc2c[nH]c3ccccc23)c1 (3D coordinates assigned)
COc1cccc(C[NH2+]CCc2c[nH]c3ccccc23)c1 (optimized conformer: 71.51202766192829 kcal/mol)

$$$$
untitled_line_119
     RDKit          3D

 25 26  0  0  0  0  0  0  0  0999 V2000
    0.9221   -1.6257   -2.7305 N   0  0  0  0  0  4  0  0  0  0  0  0
    1.7804   -1.1480   -1.6448 C   0  0  0  0  0  0  0  0  0  0  0  0
    1.2294   -1.5395   -0.2660 C   0  0  0  0  0  0  0  0  0  0  0  0
   -0.0656   -0.8430    0.0352 C   0  0  0  0  0  0  0  0  0  0  0  0
   -1.3450   -1.3740   -0.1002 C   0  0  0  0  0  0  0  0  0  0  0  0
   -2.2772   -0.4431    0.2065 N   0  0  0  0  0  0  0  0  0  0  0  0
   -1.5976    0.6722    0.5260 C   0  0  0  0  0  0  0  0  0  0  0  0
   -2.1271    1.9067    0.8999 C   0  0  0  0  0  0  0  0  0  0  0  0
   -1.2265    2.9509    1.1795 C   0  0  0  0  0  0  0  0  0  0  0  0
    0.1669    2.7408    1.0782 C   0  0  0  0  0  0  0  0  0  0  0  0
    0.6727    1.4846    0.6971 C   0  0  0  0  0  0  0  0  0  0  0  0
   -0.2448    0.4684    0.4294 C   0  0  0  0  0  0  0  0  0  0  0  0
    0.7818   -2.6593   -2.6534 H   0  0  0  0  0  0  0  0  0  0  0  0
   -0.0023   -1.1382   -2.7035 H   0  0  0  0  0  0  0  0  0  0  0  0
    1.3823   -1.4155   -3.6455 H   0  0  0  0  0  0  0  0  0  0  0  0
    2.7936   -1.5929   -1.7591 H   0  0  0  0  0  0  0  0  0  0  0  0
    1.8896   -0.0427   -1.7109 H   0  0  0  0  0  0  0  0  0  0  0  0
    1.9738   -1.2658    0.5120 H   0  0  0  0  0  0  0  0  0  0  0  0
    1.0865   -2.6406   -0.2150 H   0  0  0  0  0  0  0  0  0  0  0  0
   -1.5794   -2.3821   -0.4165 H   0  0  0  0  0  0  0  0  0  0  0  0
   -3.3139   -0.5666    0.1868 H   0  0  0  0  0  0  0  0  0  0  0  0
   -3.1963    2.0590    0.9711 H   0  0  0  0  0  0  0  0  0  0  0  0
   -1.6040    3.9218    1.4725 H   0  0  0  0  0  0  0  0  0  0  0  0
    0.8501    3.5519    1.2941 H   0  0  0  0  0  0  0  0  0  0  0  0
    1.7388    1.3170    0.6157 H   0  0  0  0  0  0  0  0  0  0  0  0
  1  2  1  0
  2  3  1  0
  3  4  1  0
  4  5  2  0
  5  6  1  0
  6  7  1  0
  7  8  2  0
  8  9  1  0
  9 10  2  0
 10 11  1  0
 11 12  2  0
 12  4  1  0
 12  7  1  0
  1 13  1  0
  1 14  1  0
  1 15  1  0
  2 16  1  0
  2 17  1  0
  3 18  1  0
  3 19  1  0
  5 20  1  0
  6 21  1  0
  8 22  1  0
  9 23  1  0
 10 24  1  0
 11 25  1  0
M  CHG  1   1   1
M  END
>  <UniqueID>  (120) 
119

>  <SMILES>  (120) 
[NH3+]CCc1c[nH]c2ccccc12

>  <Energy>  (120) 
53.91983835034111

>  <Genealogy>  (120) 
[NH3+]CCc1c[nH]c2ccccc12 (protonated)
[NH3+]CCc1c[nH]c2ccccc12 (3D coordinates assigned)
[NH3+]CCc1c[nH]c2ccccc12 (optimized conformer: 53.91983835034111 kcal/mol)

$$$$
untitled_line_120
     RDKit          3D

 76 77  0  0  0  0  0  0  0  0999 V2000
   -3.7500   -0.9886    3.4566 C   0  0  0  0  0  0  0  0  0  0  0  0
   -4.1566   -1.1866    4.9152 C   0  0  0  0  0  0  0  0  0  0  0  0
   -2.9554   -1.2500    5.8739 C   0  0  0  0  0  0  0  0  0  0  0  0
   -2.1813    0.0810    5.9791 C   0  0  0  0  0  0  0  0  0  0  0  0
   -0.8845    0.0633    5.1561 C   0  0  0  0  0  0  0  0  0  0  0  0
   -0.2025    1.4390    5.1713 C   0  0  0  0  0  0  0  0  0  0  0  0
    1.1748    1.4311    4.4846 C   0  0  0  0  0  0  0  0  0  0  0  0
    1.1659    1.0046    3.0021 C   0  0  0  0  0  0  0  0  0  0  0  0
    0.2108    1.8002    2.0939 C   0  0  0  0  0  0  0  0  0  0  0  0
    0.5948    3.2851    1.9789 C   0  0  0  0  0  0  0  0  0  0  0  0
   -0.3807    4.0939    1.1035 C   0  0  0  0  0  0  0  0  0  0  0  0
   -0.5115    3.6081   -0.3513 C   0  0  0  0  0  0  0  0  0  0  0  0
    0.8300    3.5931   -1.1035 C   0  0  0  0  0  0  0  0  0  0  0  0
    0.6615    3.3436   -2.6106 C   0  0  0  0  0  0  0  0  0  0  0  0
    0.1024    1.9460   -2.9180 C   0  0  0  0  0  0  0  0  0  0  0  0
    0.1832    1.6343   -4.4196 C   0  0  0  0  0  0  0  0  0  0  0  0
   -0.5882    0.3591   -4.8031 C   0  0  0  0  0  0  0  0  0  0  0  0
   -0.0266   -0.8424   -4.1592 N   0  0  0  0  0  4  0  0  0  0  0  0
   -0.6481   -2.0831   -4.6640 C   0  0  0  0  0  0  0  0  0  0  0  0
   -0.0365   -2.5716   -5.9908 C   0  0  0  0  0  0  0  0  0  0  0  0
    1.3903   -3.0105   -5.8269 C   0  0  0  0  0  0  0  0  0  0  0  0
    2.5257   -2.3007   -6.2051 C   0  0  0  0  0  0  0  0  0  0  0  0
    3.6435   -2.9854   -5.8704 N   0  0  0  0  0  0  0  0  0  0  0  0
    3.2234   -4.1173   -5.2792 C   0  0  0  0  0  0  0  0  0  0  0  0
    4.0124   -5.1418   -4.7574 C   0  0  0  0  0  0  0  0  0  0  0  0
    3.3583   -6.2425   -4.1734 C   0  0  0  0  0  0  0  0  0  0  0  0
    1.9479   -6.2923   -4.1214 C   0  0  0  0  0  0  0  0  0  0  0  0
    1.1773   -5.2446   -4.6577 C   0  0  0  0  0  0  0  0  0  0  0  0
    1.8537   -4.1678   -5.2318 C   0  0  0  0  0  0  0  0  0  0  0  0
   -3.3303    0.0277    3.3025 H   0  0  0  0  0  0  0  0  0  0  0  0
   -4.6443   -1.0924    2.8068 H   0  0  0  0  0  0  0  0  0  0  0  0
   -3.0039   -1.7523    3.1530 H   0  0  0  0  0  0  0  0  0  0  0  0
   -4.8450   -0.3694    5.2221 H   0  0  0  0  0  0  0  0  0  0  0  0
   -4.7171   -2.1432    4.9938 H   0  0  0  0  0  0  0  0  0  0  0  0
   -2.2827   -2.0869    5.5836 H   0  0  0  0  0  0  0  0  0  0  0  0
   -3.3517   -1.5014    6.8822 H   0  0  0  0  0  0  0  0  0  0  0  0
   -1.9124    0.2533    7.0446 H   0  0  0  0  0  0  0  0  0  0  0  0
   -2.8238    0.9327    5.6633 H   0  0  0  0  0  0  0  0  0  0  0  0
   -0.1937   -0.6967    5.5823 H   0  0  0  0  0  0  0  0  0  0  0  0
   -1.1141   -0.2232    4.1106 H   0  0  0  0  0  0  0  0  0  0  0  0
   -0.0525    1.7539    6.2273 H   0  0  0  0  0  0  0  0  0  0  0  0
   -0.8614    2.1976    4.6982 H   0  0  0  0  0  0  0  0  0  0  0  0
    1.6266    2.4414    4.5765 H   0  0  0  0  0  0  0  0  0  0  0  0
    1.8445    0.7390    5.0406 H   0  0  0  0  0  0  0  0  0  0  0  0
    0.9054   -0.0735    2.9343 H   0  0  0  0  0  0  0  0  0  0  0  0
    2.1999    1.0998    2.6043 H   0  0  0  0  0  0  0  0  0  0  0  0
    0.2628    1.3335    1.0881 H   0  0  0  0  0  0  0  0  0  0  0  0
   -0.8373    1.6982    2.4453 H   0  0  0  0  0  0  0  0  0  0  0  0
    1.6300    3.3821    1.5888 H   0  0  0  0  0  0  0  0  0  0  0  0
    0.5818    3.7458    2.9882 H   0  0  0  0  0  0  0  0  0  0  0  0
   -0.0511    5.1556    1.0974 H   0  0  0  0  0  0  0  0  0  0  0  0
   -1.3875    4.0695    1.5740 H   0  0  0  0  0  0  0  0  0  0  0  0
   -0.9729    2.5996   -0.3639 H   0  0  0  0  0  0  0  0  0  0  0  0
   -1.2128    4.2931   -0.8756 H   0  0  0  0  0  0  0  0  0  0  0  0
    1.4952    2.8090   -0.6824 H   0  0  0  0  0  0  0  0  0  0  0  0
    1.3330    4.5755   -0.9693 H   0  0  0  0  0  0  0  0  0  0  0  0
    1.6607    3.4492   -3.0878 H   0  0  0  0  0  0  0  0  0  0  0  0
   -0.0051    4.1192   -3.0474 H   0  0  0  0  0  0  0  0  0  0  0  0
    0.6873    1.1882   -2.3537 H   0  0  0  0  0  0  0  0  0  0  0  0
   -0.9589    1.8951   -2.5930 H   0  0  0  0  0  0  0  0  0  0  0  0
   -0.2518    2.4828   -4.9923 H   0  0  0  0  0  0  0  0  0  0  0  0
    1.2479    1.5310   -4.7242 H   0  0  0  0  0  0  0  0  0  0  0  0
   -1.6585    0.4787   -4.5203 H   0  0  0  0  0  0  0  0  0  0  0  0
   -0.5423    0.2634   -5.9089 H   0  0  0  0  0  0  0  0  0  0  0  0
    1.0117   -0.8706   -4.2837 H   0  0  0  0  0  0  0  0  0  0  0  0
   -0.2255   -0.7920   -3.1331 H   0  0  0  0  0  0  0  0  0  0  0  0
   -0.5321   -2.8869   -3.9028 H   0  0  0  0  0  0  0  0  0  0  0  0
   -1.7444   -1.9419   -4.8000 H   0  0  0  0  0  0  0  0  0  0  0  0
   -0.1010   -1.7834   -6.7689 H   0  0  0  0  0  0  0  0  0  0  0  0
   -0.6298   -3.4361   -6.3585 H   0  0  0  0  0  0  0  0  0  0  0  0
    2.5320   -1.3336   -6.6906 H   0  0  0  0  0  0  0  0  0  0  0  0
    4.6307   -2.6886   -6.0345 H   0  0  0  0  0  0  0  0  0  0  0  0
    5.0927   -5.0933   -4.7987 H   0  0  0  0  0  0  0  0  0  0  0  0
    3.9410   -7.0544   -3.7578 H   0  0  0  0  0  0  0  0  0  0  0  0
    1.4565   -7.1426   -3.6673 H   0  0  0  0  0  0  0  0  0  0  0  0
    0.0965   -5.2780   -4.6224 H   0  0  0  0  0  0  0  0  0  0  0  0
  1  2  1  0
  2  3  1  0
  3  4  1  0
  4  5  1  0
  5  6  1  0
  6  7  1  0
  7  8  1  0
  8  9  1  0
  9 10  1  0
 10 11  1  0
 11 12  1  0
 12 13  1  0
 13 14  1  0
 14 15  1  0
 15 16  1  0
 16 17  1  0
 17 18  1  0
 18 19  1  0
 19 20  1  0
 20 21  1  0
 21 22  2  0
 22 23  1  0
 23 24  1  0
 24 25  2  0
 25 26  1  0
 26 27  2  0
 27 28  1  0
 28 29  2  0
 29 21  1  0
 29 24  1  0
  1 30  1  0
  1 31  1  0
  1 32  1  0
  2 33  1  0
  2 34  1  0
  3 35  1  0
  3 36  1  0
  4 37  1  0
  4 38  1  0
  5 39  1  0
  5 40  1  0
  6 41  1  0
  6 42  1  0
  7 43  1  0
  7 44  1  0
  8 45  1  0
  8 46  1  0
  9 47  1  0
  9 48  1  0
 10 49  1  0
 10 50  1  0
 11 51  1  0
 11 52  1  0
 12 53  1  0
 12 54  1  0
 13 55  1  0
 13 56  1  0
 14 57  1  0
 14 58  1  0
 15 59  1  0
 15 60  1  0
 16 61  1  0
 16 62  1  0
 17 63  1  0
 17 64  1  0
 18 65  1  0
 18 66  1  0
 19 67  1  0
 19 68  1  0
 20 69  1  0
 20 70  1  0
 22 71  1  0
 23 72  1  0
 25 73  1  0
 26 74  1  0
 27 75  1  0
 28 76  1  0
M  CHG  1  18   1
M  END
>  <UniqueID>  (121) 
120

>  <SMILES>  (121) 
CCCCCCCCCCCCCCCCC[NH2+]CCc1c[nH]c2ccccc12

>  <Energy>  (121) 
81.48208104358653

>  <Genealogy>  (121) 
CCCCCCCCCCCCCCCCC[NH2+]CCc1c[nH]c2ccccc12 (protonated)
CCCCCCCCCCCCCCCCC[NH2+]CCc1c[nH]c2ccccc12 (3D coordinates assigned)
CCCCCCCCCCCCCCCCC[NH2+]CCc1c[nH]c2ccccc12 (optimized conformer: 81.48208104358653 kcal/mol)

$$$$
untitled_line_121
     RDKit          3D

 38 40  0  0  0  0  0  0  0  0999 V2000
   -1.1636   -0.7602    2.8910 Cl  0  0  0  0  0  0  0  0  0  0  0  0
    0.3492    0.0165    2.4606 C   0  0  0  0  0  0  0  0  0  0  0  0
    1.0251    0.8042    3.3978 C   0  0  0  0  0  0  0  0  0  0  0  0
    2.2305    1.4215    3.0529 C   0  0  0  0  0  0  0  0  0  0  0  0
    2.7599    1.2596    1.7689 C   0  0  0  0  0  0  0  0  0  0  0  0
    2.0829    0.4784    0.8178 C   0  0  0  0  0  0  0  0  0  0  0  0
    2.6388    0.3198   -0.5791 C   0  0  0  0  0  0  0  0  0  0  0  0
    2.6305    1.5823   -1.3440 N   0  0  0  0  0  4  0  0  0  0  0  0
    1.2821    2.1478   -1.5763 C   0  0  0  0  0  0  0  0  0  0  0  0
    0.6262    1.6571   -2.8821 C   0  0  0  0  0  0  0  0  0  0  0  0
    0.1220    0.2481   -2.7839 C   0  0  0  0  0  0  0  0  0  0  0  0
    0.6628   -0.8722   -3.4084 C   0  0  0  0  0  0  0  0  0  0  0  0
   -0.0191   -1.9851   -3.0533 N   0  0  0  0  0  0  0  0  0  0  0  0
   -0.9866   -1.5766   -2.2138 C   0  0  0  0  0  0  0  0  0  0  0  0
   -1.9314   -2.3696   -1.5640 C   0  0  0  0  0  0  0  0  0  0  0  0
   -2.8473   -1.7324   -0.7069 C   0  0  0  0  0  0  0  0  0  0  0  0
   -2.8011   -0.3327   -0.5232 C   0  0  0  0  0  0  0  0  0  0  0  0
   -1.8368    0.4424   -1.1921 C   0  0  0  0  0  0  0  0  0  0  0  0
   -0.9377   -0.2184   -2.0302 C   0  0  0  0  0  0  0  0  0  0  0  0
    0.8790   -0.1515    1.1772 C   0  0  0  0  0  0  0  0  0  0  0  0
    0.6192    0.9362    4.3927 H   0  0  0  0  0  0  0  0  0  0  0  0
    2.7546    2.0274    3.7807 H   0  0  0  0  0  0  0  0  0  0  0  0
    3.6952    1.7431    1.5165 H   0  0  0  0  0  0  0  0  0  0  0  0
    2.0973   -0.4737   -1.1309 H   0  0  0  0  0  0  0  0  0  0  0  0
    3.6879   -0.0399   -0.4916 H   0  0  0  0  0  0  0  0  0  0  0  0
    3.2031    2.2885   -0.8252 H   0  0  0  0  0  0  0  0  0  0  0  0
    3.1155    1.4208   -2.2574 H   0  0  0  0  0  0  0  0  0  0  0  0
    1.3774    3.2534   -1.6633 H   0  0  0  0  0  0  0  0  0  0  0  0
    0.6058    1.9775   -0.7129 H   0  0  0  0  0  0  0  0  0  0  0  0
   -0.2389    2.3151   -3.1134 H   0  0  0  0  0  0  0  0  0  0  0  0
    1.3389    1.7507   -3.7297 H   0  0  0  0  0  0  0  0  0  0  0  0
    1.5199   -0.8744   -4.0690 H   0  0  0  0  0  0  0  0  0  0  0  0
    0.1778   -2.9633   -3.3608 H   0  0  0  0  0  0  0  0  0  0  0  0
   -1.9577   -3.4417   -1.7093 H   0  0  0  0  0  0  0  0  0  0  0  0
   -3.5916   -2.3189   -0.1844 H   0  0  0  0  0  0  0  0  0  0  0  0
   -3.5100    0.1464    0.1393 H   0  0  0  0  0  0  0  0  0  0  0  0
   -1.7956    1.5147   -1.0535 H   0  0  0  0  0  0  0  0  0  0  0  0
    0.3523   -0.7707    0.4635 H   0  0  0  0  0  0  0  0  0  0  0  0
  1  2  1  0
  2  3  2  0
  3  4  1  0
  4  5  2  0
  5  6  1  0
  6  7  1  0
  7  8  1  0
  8  9  1  0
  9 10  1  0
 10 11  1  0
 11 12  2  0
 12 13  1  0
 13 14  1  0
 14 15  2  0
 15 16  1  0
 16 17  2  0
 17 18  1  0
 18 19  2  0
  6 20  2  0
 20  2  1  0
 19 11  1  0
 19 14  1  0
  3 21  1  0
  4 22  1  0
  5 23  1  0
  7 24  1  0
  7 25  1  0
  8 26  1  0
  8 27  1  0
  9 28  1  0
  9 29  1  0
 10 30  1  0
 10 31  1  0
 12 32  1  0
 13 33  1  0
 15 34  1  0
 16 35  1  0
 17 36  1  0
 18 37  1  0
 20 38  1  0
M  CHG  1   8   1
M  END
>  <UniqueID>  (122) 
121

>  <SMILES>  (122) 
Clc1cccc(C[NH2+]CCc2c[nH]c3ccccc23)c1

>  <Energy>  (122) 
70.61318970010274

>  <Genealogy>  (122) 
Clc1cccc(C[NH2+]CCc2c[nH]c3ccccc23)c1 (protonated)
Clc1cccc(C[NH2+]CCc2c[nH]c3ccccc23)c1 (3D coordinates assigned)
Clc1cccc(C[NH2+]CCc2c[nH]c3ccccc23)c1 (optimized conformer: 70.61318970010274 kcal/mol)

$$$$
untitled_line_122
     RDKit          3D

 49 52  0  0  0  0  0  0  0  0999 V2000
   -0.5982   -2.7475   -0.9847 O   0  0  0  0  0  0  0  0  0  0  0  0
   -0.4624   -1.6766   -0.3294 C   0  0  0  0  0  0  0  0  0  0  0  0
    0.4912   -1.6379    0.8287 C   0  0  0  0  0  0  0  0  0  0  0  0
    1.9497   -1.5383    0.3638 C   0  0  0  0  0  0  0  0  0  0  0  0
    2.2510   -0.2030   -0.3291 C   0  0  0  0  0  0  0  0  0  0  0  0
    3.7043   -0.1219   -0.6924 C   0  0  0  0  0  0  0  0  0  0  0  0
    4.3008   -0.6569   -1.8309 C   0  0  0  0  0  0  0  0  0  0  0  0
    5.6432   -0.5049   -1.7758 N   0  0  0  0  0  0  0  0  0  0  0  0
    5.9006    0.1090   -0.6076 C   0  0  0  0  0  0  0  0  0  0  0  0
    7.1504    0.4399   -0.0851 C   0  0  0  0  0  0  0  0  0  0  0  0
    7.1926    1.0465    1.1836 C   0  0  0  0  0  0  0  0  0  0  0  0
    5.9987    1.2965    1.8985 C   0  0  0  0  0  0  0  0  0  0  0  0
    4.7524    0.9425    1.3508 C   0  0  0  0  0  0  0  0  0  0  0  0
    4.7420    0.3529    0.0858 C   0  0  0  0  0  0  0  0  0  0  0  0
   -1.1848   -0.4963   -0.7071 N   0  0  0  0  0  0  0  0  0  0  0  0
   -2.1684   -0.4838   -1.7894 C   0  0  0  0  0  0  0  0  0  0  0  0
   -3.4458   -1.2300   -1.3883 C   0  0  0  0  0  0  0  0  0  0  0  0
   -4.0661   -0.6309   -0.1599 C   0  0  0  0  0  0  0  0  0  0  0  0
   -3.8916   -1.0643    1.1509 C   0  0  0  0  0  0  0  0  0  0  0  0
   -4.5480   -0.2492    2.0084 N   0  0  0  0  0  0  0  0  0  0  0  0
   -5.1257    0.6998    1.2513 C   0  0  0  0  0  0  0  0  0  0  0  0
   -5.9081    1.7692    1.6875 C   0  0  0  0  0  0  0  0  0  0  0  0
   -6.4138    2.6522    0.7164 C   0  0  0  0  0  0  0  0  0  0  0  0
   -6.1249    2.4519   -0.6527 C   0  0  0  0  0  0  0  0  0  0  0  0
   -5.3297    1.3661   -1.0636 C   0  0  0  0  0  0  0  0  0  0  0  0
   -4.8490    0.5039   -0.0780 C   0  0  0  0  0  0  0  0  0  0  0  0
    0.2480   -0.7860    1.4993 H   0  0  0  0  0  0  0  0  0  0  0  0
    0.3667   -2.5677    1.4223 H   0  0  0  0  0  0  0  0  0  0  0  0
    2.6069   -1.6408    1.2555 H   0  0  0  0  0  0  0  0  0  0  0  0
    2.1807   -2.3805   -0.3256 H   0  0  0  0  0  0  0  0  0  0  0  0
    1.9851    0.6420    0.3404 H   0  0  0  0  0  0  0  0  0  0  0  0
    1.6442   -0.1097   -1.2547 H   0  0  0  0  0  0  0  0  0  0  0  0
    3.7815   -1.1557   -2.6388 H   0  0  0  0  0  0  0  0  0  0  0  0
    6.3381   -0.8384   -2.4812 H   0  0  0  0  0  0  0  0  0  0  0  0
    8.0604    0.2317   -0.6345 H   0  0  0  0  0  0  0  0  0  0  0  0
    8.1472    1.3171    1.6172 H   0  0  0  0  0  0  0  0  0  0  0  0
    6.0443    1.7562    2.8768 H   0  0  0  0  0  0  0  0  0  0  0  0
    3.8385    1.1211    1.8969 H   0  0  0  0  0  0  0  0  0  0  0  0
   -0.9781    0.4032   -0.2169 H   0  0  0  0  0  0  0  0  0  0  0  0
   -2.4251    0.5682   -2.0417 H   0  0  0  0  0  0  0  0  0  0  0  0
   -1.7307   -0.9491   -2.6984 H   0  0  0  0  0  0  0  0  0  0  0  0
   -4.1742   -1.1827   -2.2253 H   0  0  0  0  0  0  0  0  0  0  0  0
   -3.2198   -2.3027   -1.2082 H   0  0  0  0  0  0  0  0  0  0  0  0
   -3.3095   -1.9227    1.4598 H   0  0  0  0  0  0  0  0  0  0  0  0
   -4.5879   -0.3391    3.0476 H   0  0  0  0  0  0  0  0  0  0  0  0
   -6.1228    1.9147    2.7386 H   0  0  0  0  0  0  0  0  0  0  0  0
   -7.0287    3.4890    1.0202 H   0  0  0  0  0  0  0  0  0  0  0  0
   -6.5203    3.1367   -1.3904 H   0  0  0  0  0  0  0  0  0  0  0  0
   -5.1047    1.2065   -2.1106 H   0  0  0  0  0  0  0  0  0  0  0  0
  1  2  2  0
  2  3  1  0
  3  4  1  0
  4  5  1  0
  5  6  1  0
  6  7  2  0
  7  8  1  0
  8  9  1  0
  9 10  2  0
 10 11  1  0
 11 12  2  0
 12 13  1  0
 13 14  2  0
  2 15  1  0
 15 16  1  0
 16 17  1  0
 17 18  1  0
 18 19  2  0
 19 20  1  0
 20 21  1  0
 21 22  2  0
 22 23  1  0
 23 24  2  0
 24 25  1  0
 25 26  2  0
 14  6  1  0
 26 18  1  0
 14  9  1  0
 26 21  1  0
  3 27  1  0
  3 28  1  0
  4 29  1  0
  4 30  1  0
  5 31  1  0
  5 32  1  0
  7 33  1  0
  8 34  1  0
 10 35  1  0
 11 36  1  0
 12 37  1  0
 13 38  1  0
 15 39  1  0
 16 40  1  0
 16 41  1  0
 17 42  1  0
 17 43  1  0
 19 44  1  0
 20 45  1  0
 22 46  1  0
 23 47  1  0
 24 48  1  0
 25 49  1  0
M  END
>  <UniqueID>  (123) 
122

>  <SMILES>  (123) 
O=C(CCCc1c[nH]c2ccccc12)NCCc1c[nH]c2ccccc12

>  <Energy>  (123) 
106.76464487363015

>  <Genealogy>  (123) 
O=C(CCCc1c[nH]c2ccccc12)NCCc1c[nH]c2ccccc12 (3D coordinates assigned)
O=C(CCCc1c[nH]c2ccccc12)NCCc1c[nH]c2ccccc12 (optimized conformer: 106.76464487363015 kcal/mol)

$$$$
untitled_line_123
     RDKit          3D

 50 52  0  0  0  0  0  0  0  0999 V2000
    6.9425    1.1444    1.5304 C   0  0  0  0  0  0  0  0  0  0  0  0
    6.0746    0.7574    0.4700 O   0  0  0  0  0  0  0  0  0  0  0  0
    4.6733    0.7425    0.5545 C   0  0  0  0  0  0  0  0  0  0  0  0
    3.9916    1.1265    1.7224 C   0  0  0  0  0  0  0  0  0  0  0  0
    2.5976    1.1237    1.7583 C   0  0  0  0  0  0  0  0  0  0  0  0
    1.8573    0.7152    0.6407 C   0  0  0  0  0  0  0  0  0  0  0  0
    0.3507    0.6561    0.7286 C   0  0  0  0  0  0  0  0  0  0  0  0
   -0.0858   -0.6649    1.2111 N   0  0  0  0  0  4  0  0  0  0  0  0
   -1.5548   -0.7886    1.2302 C   0  0  0  0  0  0  0  0  0  0  0  0
   -2.1209   -1.1593   -0.1506 C   0  0  0  0  0  0  0  0  0  0  0  0
   -3.6132   -1.2853   -0.0885 C   0  0  0  0  0  0  0  0  0  0  0  0
   -4.3406   -2.4532    0.1201 C   0  0  0  0  0  0  0  0  0  0  0  0
   -5.6635   -2.1787    0.1892 N   0  0  0  0  0  0  0  0  0  0  0  0
   -5.7753   -0.8472    0.0390 C   0  0  0  0  0  0  0  0  0  0  0  0
   -6.9455   -0.0894    0.0587 C   0  0  0  0  0  0  0  0  0  0  0  0
   -6.8289    1.3042   -0.0977 C   0  0  0  0  0  0  0  0  0  0  0  0
   -5.5599    1.9024   -0.2643 C   0  0  0  0  0  0  0  0  0  0  0  0
   -4.3957    1.1126   -0.2781 C   0  0  0  0  0  0  0  0  0  0  0  0
   -4.5442   -0.2663   -0.1268 C   0  0  0  0  0  0  0  0  0  0  0  0
    2.5305    0.2733   -0.5154 C   0  0  0  0  0  0  0  0  0  0  0  0
    1.7815   -0.2412   -1.5809 O   0  0  0  0  0  0  0  0  0  0  0  0
    1.9666   -1.5611   -2.0828 C   0  0  0  0  0  0  0  0  0  0  0  0
    3.9410    0.3449   -0.5741 C   0  0  0  0  0  0  0  0  0  0  0  0
    4.6405    0.0403   -1.7459 O   0  0  0  0  0  0  0  0  0  0  0  0
    4.4557    0.7727   -2.9530 C   0  0  0  0  0  0  0  0  0  0  0  0
    6.7468    2.1990    1.8184 H   0  0  0  0  0  0  0  0  0  0  0  0
    7.9939    1.0593    1.1875 H   0  0  0  0  0  0  0  0  0  0  0  0
    6.7986    0.4755    2.4051 H   0  0  0  0  0  0  0  0  0  0  0  0
    4.5302    1.4402    2.6061 H   0  0  0  0  0  0  0  0  0  0  0  0
    2.0930    1.4284    2.6671 H   0  0  0  0  0  0  0  0  0  0  0  0
   -0.0124    1.4512    1.4187 H   0  0  0  0  0  0  0  0  0  0  0  0
   -0.0843    0.8786   -0.2688 H   0  0  0  0  0  0  0  0  0  0  0  0
    0.3300   -1.4232    0.6209 H   0  0  0  0  0  0  0  0  0  0  0  0
    0.2653   -0.7900    2.1899 H   0  0  0  0  0  0  0  0  0  0  0  0
   -1.8383   -1.5922    1.9471 H   0  0  0  0  0  0  0  0  0  0  0  0
   -2.0245    0.1524    1.5974 H   0  0  0  0  0  0  0  0  0  0  0  0
   -1.6861   -2.1254   -0.4871 H   0  0  0  0  0  0  0  0  0  0  0  0
   -1.8580   -0.3885   -0.9036 H   0  0  0  0  0  0  0  0  0  0  0  0
   -3.9234   -3.4461    0.2266 H   0  0  0  0  0  0  0  0  0  0  0  0
   -6.4367   -2.8635    0.3433 H   0  0  0  0  0  0  0  0  0  0  0  0
   -7.9127   -0.5560    0.1933 H   0  0  0  0  0  0  0  0  0  0  0  0
   -7.7174    1.9220   -0.0870 H   0  0  0  0  0  0  0  0  0  0  0  0
   -5.4823    2.9755   -0.3803 H   0  0  0  0  0  0  0  0  0  0  0  0
   -3.4198    1.5642   -0.4007 H   0  0  0  0  0  0  0  0  0  0  0  0
    1.2001   -1.7633   -2.8584 H   0  0  0  0  0  0  0  0  0  0  0  0
    1.8457   -2.2983   -1.2614 H   0  0  0  0  0  0  0  0  0  0  0  0
    2.9692   -1.6793   -2.5390 H   0  0  0  0  0  0  0  0  0  0  0  0
    4.7040    1.8420   -2.7853 H   0  0  0  0  0  0  0  0  0  0  0  0
    3.4109    0.6905   -3.3139 H   0  0  0  0  0  0  0  0  0  0  0  0
    5.1332    0.3659   -3.7313 H   0  0  0  0  0  0  0  0  0  0  0  0
  1  2  1  0
  2  3  1  0
  3  4  2  0
  4  5  1  0
  5  6  2  0
  6  7  1  0
  7  8  1  0
  8  9  1  0
  9 10  1  0
 10 11  1  0
 11 12  2  0
 12 13  1  0
 13 14  1  0
 14 15  2  0
 15 16  1  0
 16 17  2  0
 17 18  1  0
 18 19  2  0
  6 20  1  0
 20 21  1  0
 21 22  1  0
 20 23  2  0
 23 24  1  0
 24 25  1  0
 23  3  1  0
 19 11  1  0
 19 14  1  0
  1 26  1  0
  1 27  1  0
  1 28  1  0
  4 29  1  0
  5 30  1  0
  7 31  1  0
  7 32  1  0
  8 33  1  0
  8 34  1  0
  9 35  1  0
  9 36  1  0
 10 37  1  0
 10 38  1  0
 12 39  1  0
 13 40  1  0
 15 41  1  0
 16 42  1  0
 17 43  1  0
 18 44  1  0
 22 45  1  0
 22 46  1  0
 22 47  1  0
 25 48  1  0
 25 49  1  0
 25 50  1  0
M  CHG  1   8   1
M  END
>  <UniqueID>  (124) 
123

>  <SMILES>  (124) 
COc1ccc(C[NH2+]CCc2c[nH]c3ccccc23)c(OC)c1OC

>  <Energy>  (124) 
91.36145864637567

>  <Genealogy>  (124) 
COc1ccc(C[NH2+]CCc2c[nH]c3ccccc23)c(OC)c1OC (protonated)
COc1ccc(C[NH2+]CCc2c[nH]c3ccccc23)c(OC)c1OC (3D coordinates assigned)
COc1ccc(C[NH2+]CCc2c[nH]c3ccccc23)c(OC)c1OC (optimized conformer: 91.36145864637567 kcal/mol)

$$$$
untitled_line_124
     RDKit          3D

 54 58  0  0  0  0  0  0  0  0999 V2000
    2.5235    2.6265   -0.3971 O   0  0  0  0  0  0  0  0  0  0  0  0
    1.5805    1.8783   -0.7755 C   0  0  0  0  0  0  0  0  0  0  0  0
    1.7608    0.9831   -1.8777 N   0  0  0  0  0  0  0  0  0  0  0  0
    3.0584    0.7906   -2.5380 C   0  0  1  0  0  0  0  0  0  0  0  0
    3.9415   -0.1912   -1.7434 C   0  0  0  0  0  0  0  0  0  0  0  0
    3.2359   -1.4817   -1.4268 C   0  0  0  0  0  0  0  0  0  0  0  0
    3.0856   -2.5759   -2.2739 C   0  0  0  0  0  0  0  0  0  0  0  0
    2.3309   -3.5304   -1.6834 N   0  0  0  0  0  0  0  0  0  0  0  0
    2.0004   -3.0477   -0.4731 C   0  0  0  0  0  0  0  0  0  0  0  0
    1.2218   -3.6711    0.5012 C   0  0  0  0  0  0  0  0  0  0  0  0
    1.0019   -2.9819    1.7077 C   0  0  0  0  0  0  0  0  0  0  0  0
    1.5585   -1.6999    1.9105 C   0  0  0  0  0  0  0  0  0  0  0  0
    2.3308   -1.0906    0.9062 C   0  0  0  0  0  0  0  0  0  0  0  0
    2.5337   -1.7989   -0.2792 C   0  0  0  0  0  0  0  0  0  0  0  0
    2.8830    0.3332   -3.9666 C   0  0  0  0  0  0  0  0  0  0  0  0
    1.9042   -0.3883   -4.2966 O   0  0  0  0  0  0  0  0  0  0  0  0
    3.8359    0.6594   -4.9277 O   0  0  0  0  0  0  0  0  0  0  0  0
    0.3479    1.9048   -0.1203 O   0  0  0  0  0  0  0  0  0  0  0  0
    0.0779    2.7547    0.9919 C   0  0  0  0  0  0  0  0  0  0  0  0
   -1.3791    2.5944    1.4458 C   0  0  0  0  0  0  0  0  0  0  0  0
   -2.3458    2.8010    0.3068 C   0  0  0  0  0  0  0  0  0  0  0  0
   -2.5519    3.9606   -0.4446 C   0  0  0  0  0  0  0  0  0  0  0  0
   -3.5076    3.9348   -1.4740 C   0  0  0  0  0  0  0  0  0  0  0  0
   -4.2431    2.7617   -1.7349 C   0  0  0  0  0  0  0  0  0  0  0  0
   -4.0309    1.6053   -0.9673 C   0  0  0  0  0  0  0  0  0  0  0  0
   -3.0747    1.6539    0.0473 C   0  0  0  0  0  0  0  0  0  0  0  0
   -2.6709    0.6346    0.9922 C   0  0  0  0  0  0  0  0  0  0  0  0
   -3.1337   -0.6720    1.1516 C   0  0  0  0  0  0  0  0  0  0  0  0
   -2.5913   -1.4461    2.1896 C   0  0  0  0  0  0  0  0  0  0  0  0
   -1.6145   -0.9027    3.0467 C   0  0  0  0  0  0  0  0  0  0  0  0
   -1.1615    0.4146    2.8646 C   0  0  0  0  0  0  0  0  0  0  0  0
   -1.6991    1.1691    1.8194 C   0  0  0  0  0  0  0  0  0  0  0  0
    0.9652    0.3442   -2.1046 H   0  0  0  0  0  0  0  0  0  0  0  0
    3.5867    1.7685   -2.5770 H   0  0  0  0  0  0  0  0  0  0  0  0
    4.8684   -0.4121   -2.3164 H   0  0  0  0  0  0  0  0  0  0  0  0
    4.2620    0.2933   -0.7968 H   0  0  0  0  0  0  0  0  0  0  0  0
    3.4959   -2.6626   -3.2716 H   0  0  0  0  0  0  0  0  0  0  0  0
    2.0562   -4.4513   -2.0920 H   0  0  0  0  0  0  0  0  0  0  0  0
    0.8014   -4.6549    0.3373 H   0  0  0  0  0  0  0  0  0  0  0  0
    0.4047   -3.4381    2.4864 H   0  0  0  0  0  0  0  0  0  0  0  0
    1.3927   -1.1829    2.8462 H   0  0  0  0  0  0  0  0  0  0  0  0
    2.7574   -0.1087    1.0594 H   0  0  0  0  0  0  0  0  0  0  0  0
    4.6515    1.2124   -4.6929 H   0  0  0  0  0  0  0  0  0  0  0  0
    0.7604    2.4993    1.8314 H   0  0  0  0  0  0  0  0  0  0  0  0
    0.2572    3.8136    0.7047 H   0  0  0  0  0  0  0  0  0  0  0  0
   -1.6137    3.2806    2.2878 H   0  0  0  0  0  0  0  0  0  0  0  0
   -1.9861    4.8603   -0.2410 H   0  0  0  0  0  0  0  0  0  0  0  0
   -3.6803    4.8217   -2.0695 H   0  0  0  0  0  0  0  0  0  0  0  0
   -4.9781    2.7526   -2.5292 H   0  0  0  0  0  0  0  0  0  0  0  0
   -4.5976    0.7038   -1.1594 H   0  0  0  0  0  0  0  0  0  0  0  0
   -3.8944   -1.0797    0.4991 H   0  0  0  0  0  0  0  0  0  0  0  0
   -2.9304   -2.4632    2.3365 H   0  0  0  0  0  0  0  0  0  0  0  0
   -1.2069   -1.5053    3.8479 H   0  0  0  0  0  0  0  0  0  0  0  0
   -0.4101    0.8341    3.5207 H   0  0  0  0  0  0  0  0  0  0  0  0
  1  2  2  0
  2  3  1  0
  3  4  1  0
  4  5  1  0
  5  6  1  0
  6  7  2  0
  7  8  1  0
  8  9  1  0
  9 10  2  0
 10 11  1  0
 11 12  2  0
 12 13  1  0
 13 14  2  0
  4 15  1  0
 15 16  2  0
 15 17  1  0
  2 18  1  0
 18 19  1  0
 19 20  1  0
 20 21  1  0
 21 22  2  0
 22 23  1  0
 23 24  2  0
 24 25  1  0
 25 26  2  0
 26 27  1  0
 27 28  2  0
 28 29  1  0
 29 30  2  0
 30 31  1  0
 31 32  2  0
 14  6  1  0
 32 20  1  0
 14  9  1  0
 26 21  1  0
 32 27  1  0
  3 33  1  0
  4 34  1  6
  5 35  1  0
  5 36  1  0
  7 37  1  0
  8 38  1  0
 10 39  1  0
 11 40  1  0
 12 41  1  0
 13 42  1  0
 17 43  1  0
 19 44  1  0
 19 45  1  0
 20 46  1  0
 22 47  1  0
 23 48  1  0
 24 49  1  0
 25 50  1  0
 28 51  1  0
 29 52  1  0
 30 53  1  0
 31 54  1  0
M  END
>  <UniqueID>  (125) 
124

>  <SMILES>  (125) 
O=C(N[C@@H](Cc1c[nH]c2ccccc12)C(=O)O)OCC1c2ccccc2-c2ccccc21

>  <Energy>  (125) 
103.89168821408744

>  <Genealogy>  (125) 
O=C(N[C@@H](Cc1c[nH]c2ccccc12)C(=O)O)OCC1c2ccccc2-c2ccccc21 (3D coordinates assigned)
O=C(N[C@@H](Cc1c[nH]c2ccccc12)C(=O)O)OCC1c2ccccc2-c2ccccc21 (nonaromatic ring conformer: 103.89168821408744 kcal/mol)

$$$$
untitled_line_125
     RDKit          3D

 49 52  0  0  0  0  0  0  0  0999 V2000
    8.7626   -0.3974    1.0307 C   0  0  0  0  0  0  0  0  0  0  0  0
    7.6782   -1.2678    1.1709 C   0  0  0  0  0  0  0  0  0  0  0  0
    6.5130   -1.0615    0.4255 C   0  0  0  0  0  0  0  0  0  0  0  0
    6.4225    0.0295   -0.4595 C   0  0  0  0  0  0  0  0  0  0  0  0
    5.2786    0.2618   -1.2374 O   0  0  0  0  0  0  0  0  0  0  0  0
    3.9635   -0.0530   -0.8644 C   0  0  0  0  0  0  0  0  0  0  0  0
    3.0361   -0.3608   -1.8661 C   0  0  0  0  0  0  0  0  0  0  0  0
    1.7122   -0.6659   -1.5368 C   0  0  0  0  0  0  0  0  0  0  0  0
    1.2983   -0.6652   -0.1958 C   0  0  0  0  0  0  0  0  0  0  0  0
   -0.1379   -0.9555    0.1566 C   0  0  0  0  0  0  0  0  0  0  0  0
   -0.9303    0.2828    0.1461 N   0  0  0  0  0  4  0  0  0  0  0  0
   -2.3327    0.0037    0.4882 C   0  0  0  0  0  0  0  0  0  0  0  0
   -3.1616    1.2935    0.4765 C   0  0  0  0  0  0  0  0  0  0  0  0
   -4.5919    1.0046    0.8212 C   0  0  0  0  0  0  0  0  0  0  0  0
   -5.1684    1.0637    2.0864 C   0  0  0  0  0  0  0  0  0  0  0  0
   -6.4604    0.6660    2.0350 N   0  0  0  0  0  0  0  0  0  0  0  0
   -6.6997    0.3444    0.7516 C   0  0  0  0  0  0  0  0  0  0  0  0
   -7.8895   -0.1395    0.2092 C   0  0  0  0  0  0  0  0  0  0  0  0
   -7.9129   -0.4341   -1.1665 C   0  0  0  0  0  0  0  0  0  0  0  0
   -6.7589   -0.2444   -1.9590 C   0  0  0  0  0  0  0  0  0  0  0  0
   -5.5712    0.2434   -1.3839 C   0  0  0  0  0  0  0  0  0  0  0  0
   -5.5809    0.5321   -0.0190 C   0  0  0  0  0  0  0  0  0  0  0  0
    2.2178   -0.3222    0.8073 C   0  0  0  0  0  0  0  0  0  0  0  0
    3.5414   -0.0176    0.4767 C   0  0  0  0  0  0  0  0  0  0  0  0
    7.5221    0.8844   -0.6079 C   0  0  0  0  0  0  0  0  0  0  0  0
    8.6859    0.6759    0.1390 C   0  0  0  0  0  0  0  0  0  0  0  0
    9.6643   -0.5590    1.6071 H   0  0  0  0  0  0  0  0  0  0  0  0
    7.7430   -2.1067    1.8517 H   0  0  0  0  0  0  0  0  0  0  0  0
    5.6940   -1.7616    0.5248 H   0  0  0  0  0  0  0  0  0  0  0  0
    3.3443   -0.3675   -2.9039 H   0  0  0  0  0  0  0  0  0  0  0  0
    1.0094   -0.9000   -2.3268 H   0  0  0  0  0  0  0  0  0  0  0  0
   -0.5566   -1.6857   -0.5727 H   0  0  0  0  0  0  0  0  0  0  0  0
   -0.1823   -1.4313    1.1626 H   0  0  0  0  0  0  0  0  0  0  0  0
   -0.5313    0.9529    0.8457 H   0  0  0  0  0  0  0  0  0  0  0  0
   -0.8870    0.7109   -0.8092 H   0  0  0  0  0  0  0  0  0  0  0  0
   -2.7663   -0.7118   -0.2474 H   0  0  0  0  0  0  0  0  0  0  0  0
   -2.3920   -0.4536    1.5023 H   0  0  0  0  0  0  0  0  0  0  0  0
   -3.1135    1.7652   -0.5285 H   0  0  0  0  0  0  0  0  0  0  0  0
   -2.7446    2.0136    1.2135 H   0  0  0  0  0  0  0  0  0  0  0  0
   -4.6663    1.3694    2.9951 H   0  0  0  0  0  0  0  0  0  0  0  0
   -7.1286    0.6074    2.8354 H   0  0  0  0  0  0  0  0  0  0  0  0
   -8.7667   -0.2874    0.8257 H   0  0  0  0  0  0  0  0  0  0  0  0
   -8.8203   -0.8115   -1.6196 H   0  0  0  0  0  0  0  0  0  0  0  0
   -6.7877   -0.4776   -3.0154 H   0  0  0  0  0  0  0  0  0  0  0  0
   -4.6822    0.3869   -1.9841 H   0  0  0  0  0  0  0  0  0  0  0  0
    1.9076   -0.2827    1.8442 H   0  0  0  0  0  0  0  0  0  0  0  0
    4.2276    0.2673    1.2633 H   0  0  0  0  0  0  0  0  0  0  0  0
    7.4708    1.7166   -1.2985 H   0  0  0  0  0  0  0  0  0  0  0  0
    9.5287    1.3454    0.0250 H   0  0  0  0  0  0  0  0  0  0  0  0
  1  2  2  0
  2  3  1  0
  3  4  2  0
  4  5  1  0
  5  6  1  0
  6  7  2  0
  7  8  1  0
  8  9  2  0
  9 10  1  0
 10 11  1  0
 11 12  1  0
 12 13  1  0
 13 14  1  0
 14 15  2  0
 15 16  1  0
 16 17  1  0
 17 18  2  0
 18 19  1  0
 19 20  2  0
 20 21  1  0
 21 22  2  0
  9 23  1  0
 23 24  2  0
  4 25  1  0
 25 26  2  0
 26  1  1  0
 24  6  1  0
 22 14  1  0
 22 17  1  0
  1 27  1  0
  2 28  1  0
  3 29  1  0
  7 30  1  0
  8 31  1  0
 10 32  1  0
 10 33  1  0
 11 34  1  0
 11 35  1  0
 12 36  1  0
 12 37  1  0
 13 38  1  0
 13 39  1  0
 15 40  1  0
 16 41  1  0
 18 42  1  0
 19 43  1  0
 20 44  1  0
 21 45  1  0
 23 46  1  0
 24 47  1  0
 25 48  1  0
 26 49  1  0
M  CHG  1  11   1
M  END
>  <UniqueID>  (126) 
125

>  <SMILES>  (126) 
c1ccc(Oc2ccc(C[NH2+]CCc3c[nH]c4ccccc34)cc2)cc1

>  <Energy>  (126) 
88.00751952712902

>  <Genealogy>  (126) 
c1ccc(Oc2ccc(C[NH2+]CCc3c[nH]c4ccccc34)cc2)cc1 (protonated)
c1ccc(Oc2ccc(C[NH2+]CCc3c[nH]c4ccccc34)cc2)cc1 (3D coordinates assigned)
c1ccc(Oc2ccc(C[NH2+]CCc3c[nH]c4ccccc34)cc2)cc1 (optimized conformer: 88.00751952712902 kcal/mol)

$$$$
untitled_line_126
     RDKit          3D

 41 43  0  0  0  0  0  0  0  0999 V2000
    3.5917   -2.1620   -1.2507 C   0  0  0  0  0  0  0  0  0  0  0  0
    2.7970   -1.1207   -1.9814 C   0  0  0  0  0  0  0  0  0  0  0  0
    3.2523   -0.6159   -3.2089 C   0  0  0  0  0  0  0  0  0  0  0  0
    2.5350    0.3869   -3.8666 C   0  0  0  0  0  0  0  0  0  0  0  0
    1.3645    0.8991   -3.3012 C   0  0  0  0  0  0  0  0  0  0  0  0
    0.8993    0.4060   -2.0725 C   0  0  0  0  0  0  0  0  0  0  0  0
   -0.3351    0.9915   -1.4373 C   0  0  0  0  0  0  0  0  0  0  0  0
    0.0085    2.1745   -0.6300 N   0  0  0  0  0  4  0  0  0  0  0  0
   -1.1522    2.6723    0.1419 C   0  0  0  0  0  0  0  0  0  0  0  0
   -1.0862    2.2876    1.6313 C   0  0  0  0  0  0  0  0  0  0  0  0
   -1.1221    0.8018    1.8362 C   0  0  0  0  0  0  0  0  0  0  0  0
   -0.0311   -0.0276    2.0800 C   0  0  0  0  0  0  0  0  0  0  0  0
   -0.4228   -1.3213    2.1264 N   0  0  0  0  0  0  0  0  0  0  0  0
   -1.7492   -1.3160    1.9071 C   0  0  0  0  0  0  0  0  0  0  0  0
   -2.5982   -2.4195    1.8365 C   0  0  0  0  0  0  0  0  0  0  0  0
   -3.9598   -2.1854    1.5700 C   0  0  0  0  0  0  0  0  0  0  0  0
   -4.4358   -0.8691    1.3784 C   0  0  0  0  0  0  0  0  0  0  0  0
   -3.5550    0.2253    1.4524 C   0  0  0  0  0  0  0  0  0  0  0  0
   -2.2124   -0.0381    1.7236 C   0  0  0  0  0  0  0  0  0  0  0  0
    1.6304   -0.5919   -1.4074 C   0  0  0  0  0  0  0  0  0  0  0  0
    4.1386   -2.8122   -1.9665 H   0  0  0  0  0  0  0  0  0  0  0  0
    4.3237   -1.6646   -0.5808 H   0  0  0  0  0  0  0  0  0  0  0  0
    2.9239   -2.8079   -0.6417 H   0  0  0  0  0  0  0  0  0  0  0  0
    4.1636   -0.9955   -3.6543 H   0  0  0  0  0  0  0  0  0  0  0  0
    2.8911    0.7731   -4.8130 H   0  0  0  0  0  0  0  0  0  0  0  0
    0.8245    1.6837   -3.8167 H   0  0  0  0  0  0  0  0  0  0  0  0
   -1.0624    1.2738   -2.2319 H   0  0  0  0  0  0  0  0  0  0  0  0
   -0.8267    0.2157   -0.8121 H   0  0  0  0  0  0  0  0  0  0  0  0
    0.8116    1.9538    0.0052 H   0  0  0  0  0  0  0  0  0  0  0  0
    0.3247    2.9309   -1.2821 H   0  0  0  0  0  0  0  0  0  0  0  0
   -2.1184    2.3279   -0.2928 H   0  0  0  0  0  0  0  0  0  0  0  0
   -1.1741    3.7841    0.0910 H   0  0  0  0  0  0  0  0  0  0  0  0
   -0.1624    2.7070    2.0856 H   0  0  0  0  0  0  0  0  0  0  0  0
   -1.9499    2.7436    2.1610 H   0  0  0  0  0  0  0  0  0  0  0  0
    0.9950    0.2966    2.1947 H   0  0  0  0  0  0  0  0  0  0  0  0
    0.1882   -2.1538    2.2813 H   0  0  0  0  0  0  0  0  0  0  0  0
   -2.2228   -3.4247    1.9778 H   0  0  0  0  0  0  0  0  0  0  0  0
   -4.6462   -3.0197    1.5083 H   0  0  0  0  0  0  0  0  0  0  0  0
   -5.4845   -0.7015    1.1708 H   0  0  0  0  0  0  0  0  0  0  0  0
   -3.9117    1.2359    1.3021 H   0  0  0  0  0  0  0  0  0  0  0  0
    1.2921   -0.9563   -0.4448 H   0  0  0  0  0  0  0  0  0  0  0  0
  1  2  1  0
  2  3  2  0
  3  4  1  0
  4  5  2  0
  5  6  1  0
  6  7  1  0
  7  8  1  0
  8  9  1  0
  9 10  1  0
 10 11  1  0
 11 12  2  0
 12 13  1  0
 13 14  1  0
 14 15  2  0
 15 16  1  0
 16 17  2  0
 17 18  1  0
 18 19  2  0
  6 20  2  0
 20  2  1  0
 19 11  1  0
 19 14  1  0
  1 21  1  0
  1 22  1  0
  1 23  1  0
  3 24  1  0
  4 25  1  0
  5 26  1  0
  7 27  1  0
  7 28  1  0
  8 29  1  0
  8 30  1  0
  9 31  1  0
  9 32  1  0
 10 33  1  0
 10 34  1  0
 12 35  1  0
 13 36  1  0
 15 37  1  0
 16 38  1  0
 17 39  1  0
 18 40  1  0
 20 41  1  0
M  CHG  1   8   1
M  END
>  <UniqueID>  (127) 
126

>  <SMILES>  (127) 
Cc1cccc(C[NH2+]CCc2c[nH]c3ccccc23)c1

>  <Energy>  (127) 
72.07339118872368

>  <Genealogy>  (127) 
Cc1cccc(C[NH2+]CCc2c[nH]c3ccccc23)c1 (protonated)
Cc1cccc(C[NH2+]CCc2c[nH]c3ccccc23)c1 (3D coordinates assigned)
Cc1cccc(C[NH2+]CCc2c[nH]c3ccccc23)c1 (optimized conformer: 72.07339118872368 kcal/mol)

$$$$
untitled_line_127
     RDKit          3D

 40 42  0  0  0  0  0  0  0  0999 V2000
   -0.4913   -0.9172    0.2491 O   0  0  0  0  0  0  0  0  0  0  0  0
   -1.1086    0.0677   -0.2394 C   0  0  0  0  0  0  0  0  0  0  0  0
   -0.4156    1.0001   -1.0847 N   0  0  0  0  0  0  0  0  0  0  0  0
    1.0163    0.8947   -1.3568 C   0  0  0  0  0  0  0  0  0  0  0  0
    1.8256    1.3650   -0.1465 C   0  0  0  0  0  0  0  0  0  0  0  0
    3.2950    1.2682   -0.4257 C   0  0  0  0  0  0  0  0  0  0  0  0
    4.1168    2.2815   -0.9092 C   0  0  0  0  0  0  0  0  0  0  0  0
    5.3714    1.8165   -1.1080 N   0  0  0  0  0  0  0  0  0  0  0  0
    5.3451    0.5172   -0.7647 C   0  0  0  0  0  0  0  0  0  0  0  0
    6.3995   -0.3930   -0.8198 C   0  0  0  0  0  0  0  0  0  0  0  0
    6.1420   -1.7212   -0.4344 C   0  0  0  0  0  0  0  0  0  0  0  0
    4.8507   -2.1061   -0.0096 C   0  0  0  0  0  0  0  0  0  0  0  0
    3.8055   -1.1659    0.0354 C   0  0  0  0  0  0  0  0  0  0  0  0
    4.0928    0.1439   -0.3489 C   0  0  0  0  0  0  0  0  0  0  0  0
   -2.5433    0.2470    0.0554 C   0  0  0  0  0  0  0  0  0  0  0  0
   -3.1503    1.2512   -0.4064 O   0  0  0  0  0  0  0  0  0  0  0  0
   -3.2338   -0.6911    0.8992 N   0  0  0  0  0  0  0  0  0  0  0  0
   -4.6640   -0.7427    1.0447 C   0  0  0  0  0  0  0  0  0  0  0  0
   -5.2166   -1.1577    2.2670 C   0  0  0  0  0  0  0  0  0  0  0  0
   -6.6034   -1.2407    2.4258 C   0  0  0  0  0  0  0  0  0  0  0  0
   -7.4500   -0.9241    1.3609 C   0  0  0  0  0  0  0  0  0  0  0  0
   -6.9110   -0.5318    0.1331 C   0  0  0  0  0  0  0  0  0  0  0  0
   -5.5246   -0.4471   -0.0299 C   0  0  0  0  0  0  0  0  0  0  0  0
   -0.9528    1.7540   -1.5691 H   0  0  0  0  0  0  0  0  0  0  0  0
    1.2735   -0.1556   -1.6158 H   0  0  0  0  0  0  0  0  0  0  0  0
    1.2676    1.5331   -2.2324 H   0  0  0  0  0  0  0  0  0  0  0  0
    1.5813    0.7471    0.7434 H   0  0  0  0  0  0  0  0  0  0  0  0
    1.5621    2.4192    0.0868 H   0  0  0  0  0  0  0  0  0  0  0  0
    3.8093    3.2981   -1.1170 H   0  0  0  0  0  0  0  0  0  0  0  0
    6.1877    2.3568   -1.4718 H   0  0  0  0  0  0  0  0  0  0  0  0
    7.3841   -0.0892   -1.1515 H   0  0  0  0  0  0  0  0  0  0  0  0
    6.9379   -2.4533   -0.4661 H   0  0  0  0  0  0  0  0  0  0  0  0
    4.6635   -3.1320    0.2812 H   0  0  0  0  0  0  0  0  0  0  0  0
    2.8127   -1.4544    0.3552 H   0  0  0  0  0  0  0  0  0  0  0  0
   -2.6618   -1.3188    1.5090 H   0  0  0  0  0  0  0  0  0  0  0  0
   -4.5713   -1.4082    3.0993 H   0  0  0  0  0  0  0  0  0  0  0  0
   -7.0212   -1.5530    3.3741 H   0  0  0  0  0  0  0  0  0  0  0  0
   -8.5231   -0.9908    1.4845 H   0  0  0  0  0  0  0  0  0  0  0  0
   -7.5675   -0.3021   -0.6962 H   0  0  0  0  0  0  0  0  0  0  0  0
   -5.1300   -0.1776   -1.0004 H   0  0  0  0  0  0  0  0  0  0  0  0
  1  2  2  0
  2  3  1  0
  3  4  1  0
  4  5  1  0
  5  6  1  0
  6  7  2  0
  7  8  1  0
  8  9  1  0
  9 10  2  0
 10 11  1  0
 11 12  2  0
 12 13  1  0
 13 14  2  0
  2 15  1  0
 15 16  2  0
 15 17  1  0
 17 18  1  0
 18 19  2  0
 19 20  1  0
 20 21  2  0
 21 22  1  0
 22 23  2  0
 14  6  1  0
 23 18  1  0
 14  9  1  0
  3 24  1  0
  4 25  1  0
  4 26  1  0
  5 27  1  0
  5 28  1  0
  7 29  1  0
  8 30  1  0
 10 31  1  0
 11 32  1  0
 12 33  1  0
 13 34  1  0
 17 35  1  0
 19 36  1  0
 20 37  1  0
 21 38  1  0
 22 39  1  0
 23 40  1  0
M  END
>  <UniqueID>  (128) 
127

>  <SMILES>  (128) 
O=C(NCCc1c[nH]c2ccccc12)C(=O)Nc1ccccc1

>  <Energy>  (128) 
72.58548833557018

>  <Genealogy>  (128) 
O=C(NCCc1c[nH]c2ccccc12)C(=O)Nc1ccccc1 (3D coordinates assigned)
O=C(NCCc1c[nH]c2ccccc12)C(=O)Nc1ccccc1 (optimized conformer: 72.58548833557018 kcal/mol)

$$$$
untitled_line_128
     RDKit          3D

 23 24  0  0  0  0  0  0  0  0999 V2000
    3.8809    1.3160   -0.7652 O   0  0  0  0  0  0  0  0  0  0  0  0
    2.5475    0.9915   -1.0497 C   0  0  0  0  0  0  0  0  0  0  0  0
    1.7206    0.9792    0.2366 C   0  0  0  0  0  0  0  0  0  0  0  0
    0.2849    0.6656   -0.0607 C   0  0  0  0  0  0  0  0  0  0  0  0
   -0.7347    1.5849   -0.2890 C   0  0  0  0  0  0  0  0  0  0  0  0
   -1.8862    0.9454   -0.5973 N   0  0  0  0  0  0  0  0  0  0  0  0
   -1.5988   -0.3679   -0.5779 C   0  0  0  0  0  0  0  0  0  0  0  0
   -2.4639   -1.4266   -0.8516 C   0  0  0  0  0  0  0  0  0  0  0  0
   -1.9438   -2.7326   -0.7929 C   0  0  0  0  0  0  0  0  0  0  0  0
   -0.5856   -2.9485   -0.4694 C   0  0  0  0  0  0  0  0  0  0  0  0
    0.2647   -1.8606   -0.1999 C   0  0  0  0  0  0  0  0  0  0  0  0
   -0.2813   -0.5782   -0.2602 C   0  0  0  0  0  0  0  0  0  0  0  0
    4.2940    0.5019   -0.3746 H   0  0  0  0  0  0  0  0  0  0  0  0
    2.1394    1.7566   -1.7446 H   0  0  0  0  0  0  0  0  0  0  0  0
    2.4915    0.0007   -1.5568 H   0  0  0  0  0  0  0  0  0  0  0  0
    2.1276    0.2197    0.9382 H   0  0  0  0  0  0  0  0  0  0  0  0
    1.7880    1.9728    0.7302 H   0  0  0  0  0  0  0  0  0  0  0  0
   -0.6357    2.6616   -0.2428 H   0  0  0  0  0  0  0  0  0  0  0  0
   -2.8062    1.3868   -0.8192 H   0  0  0  0  0  0  0  0  0  0  0  0
   -3.5015   -1.2509   -1.1044 H   0  0  0  0  0  0  0  0  0  0  0  0
   -2.5880   -3.5772   -0.9999 H   0  0  0  0  0  0  0  0  0  0  0  0
   -0.1959   -3.9573   -0.4303 H   0  0  0  0  0  0  0  0  0  0  0  0
    1.3071   -2.0184    0.0445 H   0  0  0  0  0  0  0  0  0  0  0  0
  1  2  1  0
  2  3  1  0
  3  4  1  0
  4  5  2  0
  5  6  1  0
  6  7  1  0
  7  8  2  0
  8  9  1  0
  9 10  2  0
 10 11  1  0
 11 12  2  0
 12  4  1  0
 12  7  1  0
  1 13  1  0
  2 14  1  0
  2 15  1  0
  3 16  1  0
  3 17  1  0
  5 18  1  0
  6 19  1  0
  8 20  1  0
  9 21  1  0
 10 22  1  0
 11 23  1  0
M  END
>  <UniqueID>  (129) 
128

>  <SMILES>  (129) 
OCCc1c[nH]c2ccccc12

>  <Energy>  (129) 
52.58476501471695

>  <Genealogy>  (129) 
OCCc1c[nH]c2ccccc12 (3D coordinates assigned)
OCCc1c[nH]c2ccccc12 (optimized conformer: 52.58476501471695 kcal/mol)

$$$$
untitled_line_129
     RDKit          3D

 38 40  0  0  0  0  0  0  0  0999 V2000
    4.2110    0.7399   -2.0148 C   0  0  0  0  0  0  0  0  0  0  0  0
    2.8743    1.1087   -1.8413 C   0  0  0  0  0  0  0  0  0  0  0  0
    1.9194    0.1447   -1.5050 C   0  0  0  0  0  0  0  0  0  0  0  0
    2.2978   -1.1986   -1.3353 C   0  0  0  0  0  0  0  0  0  0  0  0
    1.2702   -2.2412   -0.9599 C   0  0  0  0  0  0  0  0  0  0  0  0
    1.4435   -2.7309    0.4216 N   0  0  0  0  0  4  0  0  0  0  0  0
    1.1623   -1.7104    1.4575 C   0  0  0  0  0  0  0  0  0  0  0  0
   -0.2687   -1.7953    2.0202 C   0  0  0  0  0  0  0  0  0  0  0  0
   -1.3036   -1.3960    1.0115 C   0  0  0  0  0  0  0  0  0  0  0  0
   -2.1498   -2.2490    0.3088 C   0  0  0  0  0  0  0  0  0  0  0  0
   -2.9002   -1.5483   -0.5718 N   0  0  0  0  0  0  0  0  0  0  0  0
   -2.5320   -0.2625   -0.4340 C   0  0  0  0  0  0  0  0  0  0  0  0
   -3.0106    0.8347   -1.1486 C   0  0  0  0  0  0  0  0  0  0  0  0
   -2.4658    2.0985   -0.8559 C   0  0  0  0  0  0  0  0  0  0  0  0
   -1.4663    2.2356    0.1328 C   0  0  0  0  0  0  0  0  0  0  0  0
   -1.0021    1.1105    0.8379 C   0  0  0  0  0  0  0  0  0  0  0  0
   -1.5605   -0.1291    0.5247 C   0  0  0  0  0  0  0  0  0  0  0  0
    3.6429   -1.5617   -1.5162 C   0  0  0  0  0  0  0  0  0  0  0  0
    4.5946   -0.5943   -1.8537 C   0  0  0  0  0  0  0  0  0  0  0  0
    4.9490    1.4874   -2.2755 H   0  0  0  0  0  0  0  0  0  0  0  0
    2.5777    2.1420   -1.9675 H   0  0  0  0  0  0  0  0  0  0  0  0
    0.8877    0.4460   -1.3748 H   0  0  0  0  0  0  0  0  0  0  0  0
    0.2440   -1.8502   -1.1128 H   0  0  0  0  0  0  0  0  0  0  0  0
    1.3746   -3.0980   -1.6621 H   0  0  0  0  0  0  0  0  0  0  0  0
    0.8268   -3.5659    0.5570 H   0  0  0  0  0  0  0  0  0  0  0  0
    2.4279   -3.0680    0.5374 H   0  0  0  0  0  0  0  0  0  0  0  0
    1.3668   -0.6809    1.0955 H   0  0  0  0  0  0  0  0  0  0  0  0
    1.8559   -1.8707    2.3132 H   0  0  0  0  0  0  0  0  0  0  0  0
   -0.4726   -2.8243    2.3878 H   0  0  0  0  0  0  0  0  0  0  0  0
   -0.3504   -1.1142    2.8943 H   0  0  0  0  0  0  0  0  0  0  0  0
   -2.1976   -3.3242    0.4216 H   0  0  0  0  0  0  0  0  0  0  0  0
   -3.6088   -1.9341   -1.2347 H   0  0  0  0  0  0  0  0  0  0  0  0
   -3.7735    0.7191   -1.9076 H   0  0  0  0  0  0  0  0  0  0  0  0
   -2.8138    2.9710   -1.3933 H   0  0  0  0  0  0  0  0  0  0  0  0
   -1.0532    3.2124    0.3482 H   0  0  0  0  0  0  0  0  0  0  0  0
   -0.2347    1.2084    1.5943 H   0  0  0  0  0  0  0  0  0  0  0  0
    3.9532   -2.5923   -1.3967 H   0  0  0  0  0  0  0  0  0  0  0  0
    5.6298   -0.8792   -1.9905 H   0  0  0  0  0  0  0  0  0  0  0  0
  1  2  2  0
  2  3  1  0
  3  4  2  0
  4  5  1  0
  5  6  1  0
  6  7  1  0
  7  8  1  0
  8  9  1  0
  9 10  2  0
 10 11  1  0
 11 12  1  0
 12 13  2  0
 13 14  1  0
 14 15  2  0
 15 16  1  0
 16 17  2  0
  4 18  1  0
 18 19  2  0
 19  1  1  0
 17  9  1  0
 17 12  1  0
  1 20  1  0
  2 21  1  0
  3 22  1  0
  5 23  1  0
  5 24  1  0
  6 25  1  0
  6 26  1  0
  7 27  1  0
  7 28  1  0
  8 29  1  0
  8 30  1  0
 10 31  1  0
 11 32  1  0
 13 33  1  0
 14 34  1  0
 15 35  1  0
 16 36  1  0
 18 37  1  0
 19 38  1  0
M  CHG  1   6   1
M  END
>  <UniqueID>  (130) 
129

>  <SMILES>  (130) 
c1ccc(C[NH2+]CCc2c[nH]c3ccccc23)cc1

>  <Energy>  (130) 
71.26184843237938

>  <Genealogy>  (130) 
c1ccc(C[NH2+]CCc2c[nH]c3ccccc23)cc1 (protonated)
c1ccc(C[NH2+]CCc2c[nH]c3ccccc23)cc1 (3D coordinates assigned)
c1ccc(C[NH2+]CCc2c[nH]c3ccccc23)cc1 (optimized conformer: 71.26184843237938 kcal/mol)

$$$$
untitled_line_130
     RDKit          3D

 41 44  0  0  0  0  0  0  0  0999 V2000
    5.4397   -0.2578   -1.6409 C   0  0  0  0  0  0  0  0  0  0  0  0
    4.3206    0.4651   -2.1104 C   0  0  0  0  0  0  0  0  0  0  0  0
    3.2636    0.7874   -1.2400 C   0  0  0  0  0  0  0  0  0  0  0  0
    3.3651    0.3726    0.0888 C   0  0  0  0  0  0  0  0  0  0  0  0
    2.5069    0.5200    1.1619 C   0  0  0  0  0  0  0  0  0  0  0  0
    1.1493    1.1609    1.1731 C   0  0  0  0  0  0  0  0  0  0  0  0
    0.0254    0.1236    1.0306 C   0  0  0  0  0  0  0  0  0  0  0  0
    0.0346   -0.5115   -0.2997 N   0  0  0  0  0  4  0  0  0  0  0  0
   -1.0695   -1.4740   -0.4565 C   0  0  0  0  0  0  0  0  0  0  0  0
   -2.4036   -0.7833   -0.6054 C   0  0  0  0  0  0  0  0  0  0  0  0
   -2.7434   -0.1513   -1.8293 C   0  0  0  0  0  0  0  0  0  0  0  0
   -3.9752    0.5128   -1.9727 C   0  0  0  0  0  0  0  0  0  0  0  0
   -4.8356    0.5281   -0.8796 C   0  0  0  0  0  0  0  0  0  0  0  0
   -4.5165   -0.0716    0.2949 C   0  0  0  0  0  0  0  0  0  0  0  0
   -3.3092   -0.7393    0.4788 C   0  0  0  0  0  0  0  0  0  0  0  0
   -5.5484    0.1040    1.1966 O   0  0  0  0  0  0  0  0  0  0  0  0
   -6.5801    0.8605    0.5475 C   0  0  0  0  0  0  0  0  0  0  0  0
   -6.0842    1.1100   -0.7752 O   0  0  0  0  0  0  0  0  0  0  0  0
    3.1233   -0.1269    2.2288 C   0  0  0  0  0  0  0  0  0  0  0  0
    4.3143   -0.6404    1.8452 N   0  0  0  0  0  0  0  0  0  0  0  0
    4.4502   -0.3326    0.5437 C   0  0  0  0  0  0  0  0  0  0  0  0
    5.5113   -0.6669   -0.2967 C   0  0  0  0  0  0  0  0  0  0  0  0
    6.2462   -0.5012   -2.3203 H   0  0  0  0  0  0  0  0  0  0  0  0
    4.2750    0.7717   -3.1473 H   0  0  0  0  0  0  0  0  0  0  0  0
    2.4019    1.3358   -1.5966 H   0  0  0  0  0  0  0  0  0  0  0  0
    1.0201    1.6976    2.1377 H   0  0  0  0  0  0  0  0  0  0  0  0
    1.0730    1.9182    0.3642 H   0  0  0  0  0  0  0  0  0  0  0  0
   -0.9387    0.6535    1.1923 H   0  0  0  0  0  0  0  0  0  0  0  0
    0.1305   -0.6469    1.8276 H   0  0  0  0  0  0  0  0  0  0  0  0
   -0.0205    0.2192   -1.0479 H   0  0  0  0  0  0  0  0  0  0  0  0
    0.9305   -1.0384   -0.4199 H   0  0  0  0  0  0  0  0  0  0  0  0
   -1.0872   -2.1876    0.3983 H   0  0  0  0  0  0  0  0  0  0  0  0
   -0.8901   -2.0881   -1.3671 H   0  0  0  0  0  0  0  0  0  0  0  0
   -2.0544   -0.1741   -2.6644 H   0  0  0  0  0  0  0  0  0  0  0  0
   -4.2446    0.9977   -2.9017 H   0  0  0  0  0  0  0  0  0  0  0  0
   -3.0782   -1.2031    1.4293 H   0  0  0  0  0  0  0  0  0  0  0  0
   -7.5173    0.2674    0.4995 H   0  0  0  0  0  0  0  0  0  0  0  0
   -6.7458    1.8196    1.0817 H   0  0  0  0  0  0  0  0  0  0  0  0
    2.7165   -0.2249    3.2269 H   0  0  0  0  0  0  0  0  0  0  0  0
    4.9829   -1.1793    2.4395 H   0  0  0  0  0  0  0  0  0  0  0  0
    6.3618   -1.2263    0.0707 H   0  0  0  0  0  0  0  0  0  0  0  0
  1  2  2  0
  2  3  1  0
  3  4  2  0
  4  5  1  0
  5  6  1  0
  6  7  1  0
  7  8  1  0
  8  9  1  0
  9 10  1  0
 10 11  2  0
 11 12  1  0
 12 13  2  0
 13 14  1  0
 14 15  2  0
 14 16  1  0
 16 17  1  0
 17 18  1  0
  5 19  2  0
 19 20  1  0
 20 21  1  0
 21 22  2  0
 22  1  1  0
 21  4  1  0
 15 10  1  0
 18 13  1  0
  1 23  1  0
  2 24  1  0
  3 25  1  0
  6 26  1  0
  6 27  1  0
  7 28  1  0
  7 29  1  0
  8 30  1  0
  8 31  1  0
  9 32  1  0
  9 33  1  0
 11 34  1  0
 12 35  1  0
 15 36  1  0
 17 37  1  0
 17 38  1  0
 19 39  1  0
 20 40  1  0
 22 41  1  0
M  CHG  1   8   1
M  END
>  <UniqueID>  (131) 
130

>  <SMILES>  (131) 
c1ccc2c(CC[NH2+]Cc3ccc4c(c3)OCO4)c[nH]c2c1

>  <Energy>  (131) 
101.94658378861982

>  <Genealogy>  (131) 
c1ccc2c(CC[NH2+]Cc3ccc4c(c3)OCO4)c[nH]c2c1 (protonated)
c1ccc2c(CC[NH2+]Cc3ccc4c(c3)OCO4)c[nH]c2c1 (3D coordinates assigned)
c1ccc2c(CC[NH2+]Cc3ccc4c(c3)OCO4)c[nH]c2c1 (nonaromatic ring conformer: 101.94658378861982 kcal/mol)

$$$$
untitled_line_131
     RDKit          3D

 41 43  0  0  0  0  0  0  0  0999 V2000
   -3.9865   -1.7859   -1.5182 C   0  0  0  0  0  0  0  0  0  0  0  0
   -4.6424   -0.7612   -0.6324 C   0  0  0  0  0  0  0  0  0  0  0  0
   -5.8982   -1.0510   -0.0716 C   0  0  0  0  0  0  0  0  0  0  0  0
   -6.5548   -0.1081    0.7228 C   0  0  0  0  0  0  0  0  0  0  0  0
   -5.9656    1.1327    0.9673 C   0  0  0  0  0  0  0  0  0  0  0  0
   -4.7096    1.4277    0.4334 C   0  0  0  0  0  0  0  0  0  0  0  0
   -4.0260    0.4808   -0.3430 C   0  0  0  0  0  0  0  0  0  0  0  0
   -2.7299    0.8172   -0.8581 N   0  0  0  0  0  0  0  0  0  0  0  0
   -1.5482    0.0828   -0.5113 C   0  0  0  0  0  0  0  0  0  0  0  0
   -1.6090   -0.8564    0.3289 O   0  0  0  0  0  0  0  0  0  0  0  0
   -0.2938    0.4322   -1.1114 N   0  0  0  0  0  0  0  0  0  0  0  0
    0.9531   -0.2577   -0.7881 C   0  0  0  0  0  0  0  0  0  0  0  0
    1.4719    0.1883    0.5807 C   0  0  0  0  0  0  0  0  0  0  0  0
    2.7639   -0.5000    0.9038 C   0  0  0  0  0  0  0  0  0  0  0  0
    2.9152   -1.6890    1.6110 C   0  0  0  0  0  0  0  0  0  0  0  0
    4.2174   -2.0536    1.6477 N   0  0  0  0  0  0  0  0  0  0  0  0
    4.8865   -1.1125    0.9589 C   0  0  0  0  0  0  0  0  0  0  0  0
    6.2565   -1.0657    0.7040 C   0  0  0  0  0  0  0  0  0  0  0  0
    6.7461    0.0074   -0.0631 C   0  0  0  0  0  0  0  0  0  0  0  0
    5.8652    0.9959   -0.5559 C   0  0  0  0  0  0  0  0  0  0  0  0
    4.4867    0.9217   -0.2846 C   0  0  0  0  0  0  0  0  0  0  0  0
    4.0322   -0.1505    0.4837 C   0  0  0  0  0  0  0  0  0  0  0  0
   -4.7515   -2.3967   -2.0434 H   0  0  0  0  0  0  0  0  0  0  0  0
   -3.3554   -2.4617   -0.9050 H   0  0  0  0  0  0  0  0  0  0  0  0
   -3.3617   -1.2994   -2.2961 H   0  0  0  0  0  0  0  0  0  0  0  0
   -6.3767   -2.0041   -0.2609 H   0  0  0  0  0  0  0  0  0  0  0  0
   -7.5256   -0.3373    1.1430 H   0  0  0  0  0  0  0  0  0  0  0  0
   -6.4801    1.8649    1.5761 H   0  0  0  0  0  0  0  0  0  0  0  0
   -4.2567    2.3896    0.6391 H   0  0  0  0  0  0  0  0  0  0  0  0
   -2.6159    1.7346   -1.3450 H   0  0  0  0  0  0  0  0  0  0  0  0
   -0.2783    1.1669   -1.8541 H   0  0  0  0  0  0  0  0  0  0  0  0
    0.7897   -1.3578   -0.8035 H   0  0  0  0  0  0  0  0  0  0  0  0
    1.7124   -0.0138   -1.5634 H   0  0  0  0  0  0  0  0  0  0  0  0
    0.7252   -0.0509    1.3676 H   0  0  0  0  0  0  0  0  0  0  0  0
    1.6275    1.2886    0.5816 H   0  0  0  0  0  0  0  0  0  0  0  0
    2.1150   -2.2605    2.0630 H   0  0  0  0  0  0  0  0  0  0  0  0
    4.6158   -2.9030    2.1061 H   0  0  0  0  0  0  0  0  0  0  0  0
    6.9227   -1.8311    1.0805 H   0  0  0  0  0  0  0  0  0  0  0  0
    7.8044    0.0740   -0.2797 H   0  0  0  0  0  0  0  0  0  0  0  0
    6.2528    1.8149   -1.1476 H   0  0  0  0  0  0  0  0  0  0  0  0
    3.8057    1.6730   -0.6626 H   0  0  0  0  0  0  0  0  0  0  0  0
  1  2  1  0
  2  3  2  0
  3  4  1  0
  4  5  2  0
  5  6  1  0
  6  7  2  0
  7  8  1  0
  8  9  1  0
  9 10  2  0
  9 11  1  0
 11 12  1  0
 12 13  1  0
 13 14  1  0
 14 15  2  0
 15 16  1  0
 16 17  1  0
 17 18  2  0
 18 19  1  0
 19 20  2  0
 20 21  1  0
 21 22  2  0
  7  2  1  0
 22 14  1  0
 22 17  1  0
  1 23  1  0
  1 24  1  0
  1 25  1  0
  3 26  1  0
  4 27  1  0
  5 28  1  0
  6 29  1  0
  8 30  1  0
 11 31  1  0
 12 32  1  0
 12 33  1  0
 13 34  1  0
 13 35  1  0
 15 36  1  0
 16 37  1  0
 18 38  1  0
 19 39  1  0
 20 40  1  0
 21 41  1  0
M  END
>  <UniqueID>  (132) 
131

>  <SMILES>  (132) 
Cc1ccccc1NC(=O)NCCc1c[nH]c2ccccc12

>  <Energy>  (132) 
75.9956145046112

>  <Genealogy>  (132) 
Cc1ccccc1NC(=O)NCCc1c[nH]c2ccccc12 (3D coordinates assigned)
Cc1ccccc1NC(=O)NCCc1c[nH]c2ccccc12 (optimized conformer: 75.9956145046112 kcal/mol)

$$$$
untitled_line_132
     RDKit          3D

 37 39  0  0  0  0  0  0  0  0999 V2000
    1.9303   -1.1741    1.5756 O   0  0  0  0  0  0  0  0  0  0  0  0
    2.2361   -0.4073    0.6216 C   0  0  0  0  0  0  0  0  0  0  0  0
    1.2112    0.0544   -0.2720 N   0  0  0  0  0  0  0  0  0  0  0  0
   -0.1579   -0.4528   -0.1832 C   0  0  0  0  0  0  0  0  0  0  0  0
   -1.0527    0.2019   -1.2386 C   0  0  0  0  0  0  0  0  0  0  0  0
   -2.4527   -0.3263   -1.1444 C   0  0  0  0  0  0  0  0  0  0  0  0
   -2.9869   -1.3922   -1.8623 C   0  0  0  0  0  0  0  0  0  0  0  0
   -4.2572   -1.6376   -1.4671 N   0  0  0  0  0  0  0  0  0  0  0  0
   -4.5240   -0.7449   -0.4977 C   0  0  0  0  0  0  0  0  0  0  0  0
   -5.7051   -0.6175    0.2323 C   0  0  0  0  0  0  0  0  0  0  0  0
   -5.7613    0.3800    1.2230 C   0  0  0  0  0  0  0  0  0  0  0  0
   -4.6473    1.2155    1.4617 C   0  0  0  0  0  0  0  0  0  0  0  0
   -3.4675    1.0627    0.7108 C   0  0  0  0  0  0  0  0  0  0  0  0
   -3.4443    0.0691   -0.2682 C   0  0  0  0  0  0  0  0  0  0  0  0
    3.6487    0.0080    0.4381 C   0  0  0  0  0  0  0  0  0  0  0  0
    4.1483    0.2520   -0.8553 C   0  0  0  0  0  0  0  0  0  0  0  0
    5.4799    0.6312   -1.0430 C   0  0  0  0  0  0  0  0  0  0  0  0
    6.3307    0.7677    0.0539 C   0  0  0  0  0  0  0  0  0  0  0  0
    5.8532    0.5240    1.3425 C   0  0  0  0  0  0  0  0  0  0  0  0
    4.5173    0.1452    1.5443 C   0  0  0  0  0  0  0  0  0  0  0  0
    4.0531   -0.0790    2.8407 O   0  0  0  0  0  0  0  0  0  0  0  0
    1.4405    0.7955   -0.9724 H   0  0  0  0  0  0  0  0  0  0  0  0
   -0.5621   -0.2377    0.8304 H   0  0  0  0  0  0  0  0  0  0  0  0
   -0.1491   -1.5540   -0.3386 H   0  0  0  0  0  0  0  0  0  0  0  0
   -1.0631    1.3035   -1.0923 H   0  0  0  0  0  0  0  0  0  0  0  0
   -0.6474   -0.0073   -2.2524 H   0  0  0  0  0  0  0  0  0  0  0  0
   -2.4702   -1.9629   -2.6229 H   0  0  0  0  0  0  0  0  0  0  0  0
   -4.8929   -2.3809   -1.8328 H   0  0  0  0  0  0  0  0  0  0  0  0
   -6.5511   -1.2664    0.0463 H   0  0  0  0  0  0  0  0  0  0  0  0
   -6.6630    0.5058    1.8081 H   0  0  0  0  0  0  0  0  0  0  0  0
   -4.7010    1.9772    2.2286 H   0  0  0  0  0  0  0  0  0  0  0  0
   -2.6089    1.6963    0.8913 H   0  0  0  0  0  0  0  0  0  0  0  0
    3.5190    0.1264   -1.7269 H   0  0  0  0  0  0  0  0  0  0  0  0
    5.8544    0.8126   -2.0423 H   0  0  0  0  0  0  0  0  0  0  0  0
    7.3622    1.0601   -0.0947 H   0  0  0  0  0  0  0  0  0  0  0  0
    6.5219    0.6333    2.1869 H   0  0  0  0  0  0  0  0  0  0  0  0
    4.6589    0.0187    3.6471 H   0  0  0  0  0  0  0  0  0  0  0  0
  1  2  2  0
  2  3  1  0
  3  4  1  0
  4  5  1  0
  5  6  1  0
  6  7  2  0
  7  8  1  0
  8  9  1  0
  9 10  2  0
 10 11  1  0
 11 12  2  0
 12 13  1  0
 13 14  2  0
  2 15  1  0
 15 16  2  0
 16 17  1  0
 17 18  2  0
 18 19  1  0
 19 20  2  0
 20 21  1  0
 14  6  1  0
 20 15  1  0
 14  9  1  0
  3 22  1  0
  4 23  1  0
  4 24  1  0
  5 25  1  0
  5 26  1  0
  7 27  1  0
  8 28  1  0
 10 29  1  0
 11 30  1  0
 12 31  1  0
 13 32  1  0
 16 33  1  0
 17 34  1  0
 18 35  1  0
 19 36  1  0
 21 37  1  0
M  END
>  <UniqueID>  (133) 
132

>  <SMILES>  (133) 
O=C(NCCc1c[nH]c2ccccc12)c1ccccc1O

>  <Energy>  (133) 
70.63773290483819

>  <Genealogy>  (133) 
O=C(NCCc1c[nH]c2ccccc12)c1ccccc1O (3D coordinates assigned)
O=C(NCCc1c[nH]c2ccccc12)c1ccccc1O (optimized conformer: 70.63773290483819 kcal/mol)

$$$$
untitled_line_133
     RDKit          3D

 38 40  0  0  0  0  0  0  0  0999 V2000
   -1.1563   -1.7433   -5.0362 C   0  0  0  0  0  0  0  0  0  0  0  0
   -0.6700   -0.5137   -5.4842 C   0  0  0  0  0  0  0  0  0  0  0  0
    0.3412    0.1057   -4.8167 N   0  0  0  0  0  4  0  0  0  0  0  0
    0.9043   -0.4470   -3.7073 C   0  0  0  0  0  0  0  0  0  0  0  0
    0.4503   -1.6843   -3.2245 C   0  0  0  0  0  0  0  0  0  0  0  0
    1.0495   -2.2956   -1.9804 C   0  0  0  0  0  0  0  0  0  0  0  0
    0.1767   -2.1230   -0.8063 N   0  0  0  0  0  4  0  0  0  0  0  0
    0.1274   -0.7215   -0.3579 C   0  0  0  0  0  0  0  0  0  0  0  0
   -0.7100   -0.5888    0.9193 C   0  0  0  0  0  0  0  0  0  0  0  0
   -0.7744    0.8427    1.3603 C   0  0  0  0  0  0  0  0  0  0  0  0
   -1.7631    1.7667    1.0355 C   0  0  0  0  0  0  0  0  0  0  0  0
   -1.4566    2.9831    1.5417 N   0  0  0  0  0  0  0  0  0  0  0  0
   -0.2773    2.8375    2.1709 C   0  0  0  0  0  0  0  0  0  0  0  0
    0.4559    3.8229    2.8308 C   0  0  0  0  0  0  0  0  0  0  0  0
    1.6865    3.4533    3.4044 C   0  0  0  0  0  0  0  0  0  0  0  0
    2.1530    2.1236    3.3031 C   0  0  0  0  0  0  0  0  0  0  0  0
    1.3926    1.1507    2.6290 C   0  0  0  0  0  0  0  0  0  0  0  0
    0.1741    1.5459    2.0764 C   0  0  0  0  0  0  0  0  0  0  0  0
   -0.5947   -2.3286   -3.9009 C   0  0  0  0  0  0  0  0  0  0  0  0
   -1.9625   -2.2368   -5.5633 H   0  0  0  0  0  0  0  0  0  0  0  0
   -1.1012   -0.0523   -6.3636 H   0  0  0  0  0  0  0  0  0  0  0  0
    0.6916    1.0270   -5.1621 H   0  0  0  0  0  0  0  0  0  0  0  0
    1.7024    0.0781   -3.1964 H   0  0  0  0  0  0  0  0  0  0  0  0
    2.0589   -1.8707   -1.7794 H   0  0  0  0  0  0  0  0  0  0  0  0
    1.2035   -3.3827   -2.1618 H   0  0  0  0  0  0  0  0  0  0  0  0
   -0.7894   -2.4603   -1.0293 H   0  0  0  0  0  0  0  0  0  0  0  0
    0.5602   -2.7138   -0.0313 H   0  0  0  0  0  0  0  0  0  0  0  0
   -0.3297   -0.0847   -1.1478 H   0  0  0  0  0  0  0  0  0  0  0  0
    1.1577   -0.3498   -0.1556 H   0  0  0  0  0  0  0  0  0  0  0  0
   -1.7402   -0.9620    0.7319 H   0  0  0  0  0  0  0  0  0  0  0  0
   -0.2644   -1.2040    1.7302 H   0  0  0  0  0  0  0  0  0  0  0  0
   -2.6503    1.5621    0.4504 H   0  0  0  0  0  0  0  0  0  0  0  0
   -2.0172    3.8590    1.4466 H   0  0  0  0  0  0  0  0  0  0  0  0
    0.0934    4.8405    2.8974 H   0  0  0  0  0  0  0  0  0  0  0  0
    2.2809    4.1936    3.9237 H   0  0  0  0  0  0  0  0  0  0  0  0
    3.1026    1.8518    3.7452 H   0  0  0  0  0  0  0  0  0  0  0  0
    1.7460    0.1313    2.5435 H   0  0  0  0  0  0  0  0  0  0  0  0
   -0.9729   -3.2802   -3.5483 H   0  0  0  0  0  0  0  0  0  0  0  0
  1  2  2  0
  2  3  1  0
  3  4  2  0
  4  5  1  0
  5  6  1  0
  6  7  1  0
  7  8  1  0
  8  9  1  0
  9 10  1  0
 10 11  2  0
 11 12  1  0
 12 13  1  0
 13 14  2  0
 14 15  1  0
 15 16  2  0
 16 17  1  0
 17 18  2  0
  5 19  2  0
 19  1  1  0
 18 10  1  0
 18 13  1  0
  1 20  1  0
  2 21  1  0
  3 22  1  0
  4 23  1  0
  6 24  1  0
  6 25  1  0
  7 26  1  0
  7 27  1  0
  8 28  1  0
  8 29  1  0
  9 30  1  0
  9 31  1  0
 11 32  1  0
 12 33  1  0
 14 34  1  0
 15 35  1  0
 16 36  1  0
 17 37  1  0
 19 38  1  0
M  CHG  2   3   1   7   1
M  END
>  <UniqueID>  (134) 
133

>  <SMILES>  (134) 
c1c[nH+]cc(C[NH2+]CCc2c[nH]c3ccccc23)c1

>  <Energy>  (134) 
69.19835596258214

>  <Genealogy>  (134) 
c1c[nH+]cc(C[NH2+]CCc2c[nH]c3ccccc23)c1 (protonated)
c1c[nH+]cc(C[NH2+]CCc2c[nH]c3ccccc23)c1 (3D coordinates assigned)
c1c[nH+]cc(C[NH2+]CCc2c[nH]c3ccccc23)c1 (optimized conformer: 69.19835596258214 kcal/mol)

$$$$
untitled_line_134
     RDKit          3D

 38 40  0  0  0  0  0  0  0  0999 V2000
   -0.9062   -1.7930    1.6333 O   0  0  0  0  0  0  0  0  0  0  0  0
   -0.1437   -0.7889    1.5977 C   0  0  0  0  0  0  0  0  0  0  0  0
    1.2751   -0.9646    1.6934 N   0  0  0  0  0  0  0  0  0  0  0  0
    1.9204   -2.2694    1.5503 C   0  0  0  0  0  0  0  0  0  0  0  0
    1.8124   -2.7894    0.1106 C   0  0  0  0  0  0  0  0  0  0  0  0
    2.3859   -1.8078   -0.8716 C   0  0  0  0  0  0  0  0  0  0  0  0
    3.7373   -1.5753   -1.1094 C   0  0  0  0  0  0  0  0  0  0  0  0
    3.8951   -0.5448   -1.9709 N   0  0  0  0  0  0  0  0  0  0  0  0
    2.6563   -0.1166   -2.2700 C   0  0  0  0  0  0  0  0  0  0  0  0
    2.3092    0.9507   -3.0974 C   0  0  0  0  0  0  0  0  0  0  0  0
    0.9426    1.2480   -3.2496 C   0  0  0  0  0  0  0  0  0  0  0  0
   -0.0355    0.4802   -2.5803 C   0  0  0  0  0  0  0  0  0  0  0  0
    0.3437   -0.5923   -1.7534 C   0  0  0  0  0  0  0  0  0  0  0  0
    1.7069   -0.8615   -1.6176 C   0  0  0  0  0  0  0  0  0  0  0  0
   -0.6794    0.5277    1.3974 N   0  0  0  0  0  0  0  0  0  0  0  0
   -2.0802    0.8063    1.2430 C   0  0  0  0  0  0  0  0  0  0  0  0
   -3.0456    0.1767    2.0496 C   0  0  0  0  0  0  0  0  0  0  0  0
   -4.4019    0.4781    1.8895 C   0  0  0  0  0  0  0  0  0  0  0  0
   -4.8038    1.4154    0.9342 C   0  0  0  0  0  0  0  0  0  0  0  0
   -3.8491    2.0597    0.1430 C   0  0  0  0  0  0  0  0  0  0  0  0
   -2.4921    1.7625    0.3014 C   0  0  0  0  0  0  0  0  0  0  0  0
    1.8801   -0.1224    1.8214 H   0  0  0  0  0  0  0  0  0  0  0  0
    1.4557   -2.9969    2.2500 H   0  0  0  0  0  0  0  0  0  0  0  0
    2.9944   -2.1789    1.8244 H   0  0  0  0  0  0  0  0  0  0  0  0
    2.3704   -3.7468    0.0310 H   0  0  0  0  0  0  0  0  0  0  0  0
    0.7525   -3.0054   -0.1387 H   0  0  0  0  0  0  0  0  0  0  0  0
    4.5589   -2.1161   -0.6580 H   0  0  0  0  0  0  0  0  0  0  0  0
    4.7990   -0.1500   -2.3138 H   0  0  0  0  0  0  0  0  0  0  0  0
    3.0662    1.5369   -3.6022 H   0  0  0  0  0  0  0  0  0  0  0  0
    0.6391    2.0718   -3.8823 H   0  0  0  0  0  0  0  0  0  0  0  0
   -1.0840    0.7186   -2.7032 H   0  0  0  0  0  0  0  0  0  0  0  0
   -0.4043   -1.1838   -1.2434 H   0  0  0  0  0  0  0  0  0  0  0  0
   -0.0024    1.2933    1.1787 H   0  0  0  0  0  0  0  0  0  0  0  0
   -2.7520   -0.5273    2.8167 H   0  0  0  0  0  0  0  0  0  0  0  0
   -5.1411   -0.0096    2.5118 H   0  0  0  0  0  0  0  0  0  0  0  0
   -5.8538    1.6479    0.8123 H   0  0  0  0  0  0  0  0  0  0  0  0
   -4.1603    2.7906   -0.5922 H   0  0  0  0  0  0  0  0  0  0  0  0
   -1.7610    2.2670   -0.3180 H   0  0  0  0  0  0  0  0  0  0  0  0
  1  2  2  0
  2  3  1  0
  3  4  1  0
  4  5  1  0
  5  6  1  0
  6  7  2  0
  7  8  1  0
  8  9  1  0
  9 10  2  0
 10 11  1  0
 11 12  2  0
 12 13  1  0
 13 14  2  0
  2 15  1  0
 15 16  1  0
 16 17  2  0
 17 18  1  0
 18 19  2  0
 19 20  1  0
 20 21  2  0
 14  6  1  0
 21 16  1  0
 14  9  1  0
  3 22  1  0
  4 23  1  0
  4 24  1  0
  5 25  1  0
  5 26  1  0
  7 27  1  0
  8 28  1  0
 10 29  1  0
 11 30  1  0
 12 31  1  0
 13 32  1  0
 15 33  1  0
 17 34  1  0
 18 35  1  0
 19 36  1  0
 20 37  1  0
 21 38  1  0
M  END
>  <UniqueID>  (135) 
134

>  <SMILES>  (135) 
O=C(NCCc1c[nH]c2ccccc12)Nc1ccccc1

>  <Energy>  (135) 
69.565122612958

>  <Genealogy>  (135) 
O=C(NCCc1c[nH]c2ccccc12)Nc1ccccc1 (3D coordinates assigned)
O=C(NCCc1c[nH]c2ccccc12)Nc1ccccc1 (optimized conformer: 69.565122612958 kcal/mol)

$$$$
untitled_line_135
     RDKit          3D

 44 46  0  0  0  0  0  0  0  0999 V2000
    2.4025    4.2703    1.7901 C   0  0  0  0  0  0  0  0  0  0  0  0
    0.9492    4.1381    2.2329 C   0  0  0  0  0  0  0  0  0  0  0  0
    0.1843    3.2467    1.2919 C   0  0  0  0  0  0  0  0  0  0  0  0
    0.1455    1.8599    1.5050 C   0  0  0  0  0  0  0  0  0  0  0  0
   -0.5367    1.0279    0.6129 C   0  0  0  0  0  0  0  0  0  0  0  0
   -1.1906    1.5709   -0.5042 C   0  0  0  0  0  0  0  0  0  0  0  0
   -1.8874    0.6685   -1.4902 C   0  0  0  0  0  0  0  0  0  0  0  0
   -0.9439    0.2149   -2.5249 N   0  0  0  0  0  4  0  0  0  0  0  0
   -1.5919   -0.6370   -3.5415 C   0  0  0  0  0  0  0  0  0  0  0  0
   -1.8517   -2.0778   -3.0610 C   0  0  0  0  0  0  0  0  0  0  0  0
   -0.5756   -2.8105   -2.7591 C   0  0  0  0  0  0  0  0  0  0  0  0
    0.3467   -3.2781   -3.6908 C   0  0  0  0  0  0  0  0  0  0  0  0
    1.4152   -3.8227   -3.0659 N   0  0  0  0  0  0  0  0  0  0  0  0
    1.1796   -3.6966   -1.7485 C   0  0  0  0  0  0  0  0  0  0  0  0
    2.0099   -4.0933   -0.7010 C   0  0  0  0  0  0  0  0  0  0  0  0
    1.5744   -3.8457    0.6135 C   0  0  0  0  0  0  0  0  0  0  0  0
    0.3330   -3.2147    0.8490 C   0  0  0  0  0  0  0  0  0  0  0  0
   -0.4846   -2.8261   -0.2275 C   0  0  0  0  0  0  0  0  0  0  0  0
   -0.0260   -3.0829   -1.5202 C   0  0  0  0  0  0  0  0  0  0  0  0
   -1.1278    2.9542   -0.7326 C   0  0  0  0  0  0  0  0  0  0  0  0
   -0.4458    3.7866    0.1597 C   0  0  0  0  0  0  0  0  0  0  0  0
    2.8951    3.2744    1.7817 H   0  0  0  0  0  0  0  0  0  0  0  0
    2.9480    4.9308    2.4965 H   0  0  0  0  0  0  0  0  0  0  0  0
    2.4568    4.7148    0.7732 H   0  0  0  0  0  0  0  0  0  0  0  0
    0.4832    5.1470    2.2676 H   0  0  0  0  0  0  0  0  0  0  0  0
    0.9163    3.7233    3.2640 H   0  0  0  0  0  0  0  0  0  0  0  0
    0.6479    1.4226    2.3591 H   0  0  0  0  0  0  0  0  0  0  0  0
   -0.5509   -0.0394    0.7912 H   0  0  0  0  0  0  0  0  0  0  0  0
   -2.7361    1.2174   -1.9573 H   0  0  0  0  0  0  0  0  0  0  0  0
   -2.3174   -0.1973   -0.9441 H   0  0  0  0  0  0  0  0  0  0  0  0
   -0.5617    1.0584   -3.0144 H   0  0  0  0  0  0  0  0  0  0  0  0
   -0.1393   -0.2861   -2.0825 H   0  0  0  0  0  0  0  0  0  0  0  0
   -0.9439   -0.6808   -4.4456 H   0  0  0  0  0  0  0  0  0  0  0  0
   -2.5543   -0.1843   -3.8697 H   0  0  0  0  0  0  0  0  0  0  0  0
   -2.5254   -2.0868   -2.1810 H   0  0  0  0  0  0  0  0  0  0  0  0
   -2.3821   -2.6255   -3.8693 H   0  0  0  0  0  0  0  0  0  0  0  0
    0.2468   -3.2090   -4.7662 H   0  0  0  0  0  0  0  0  0  0  0  0
    2.2576   -4.2417   -3.5191 H   0  0  0  0  0  0  0  0  0  0  0  0
    2.9614   -4.5727   -0.8915 H   0  0  0  0  0  0  0  0  0  0  0  0
    2.1954   -4.1394    1.4497 H   0  0  0  0  0  0  0  0  0  0  0  0
    0.0084   -3.0281    1.8643 H   0  0  0  0  0  0  0  0  0  0  0  0
   -1.4364   -2.3449   -0.0497 H   0  0  0  0  0  0  0  0  0  0  0  0
   -1.6023    3.3873   -1.6046 H   0  0  0  0  0  0  0  0  0  0  0  0
   -0.4040    4.8512   -0.0347 H   0  0  0  0  0  0  0  0  0  0  0  0
  1  2  1  0
  2  3  1  0
  3  4  2  0
  4  5  1  0
  5  6  2  0
  6  7  1  0
  7  8  1  0
  8  9  1  0
  9 10  1  0
 10 11  1  0
 11 12  2  0
 12 13  1  0
 13 14  1  0
 14 15  2  0
 15 16  1  0
 16 17  2  0
 17 18  1  0
 18 19  2  0
  6 20  1  0
 20 21  2  0
 21  3  1  0
 19 11  1  0
 19 14  1  0
  1 22  1  0
  1 23  1  0
  1 24  1  0
  2 25  1  0
  2 26  1  0
  4 27  1  0
  5 28  1  0
  7 29  1  0
  7 30  1  0
  8 31  1  0
  8 32  1  0
  9 33  1  0
  9 34  1  0
 10 35  1  0
 10 36  1  0
 12 37  1  0
 13 38  1  0
 15 39  1  0
 16 40  1  0
 17 41  1  0
 18 42  1  0
 20 43  1  0
 21 44  1  0
M  CHG  1   8   1
M  END
>  <UniqueID>  (136) 
135

>  <SMILES>  (136) 
CCc1ccc(C[NH2+]CCc2c[nH]c3ccccc23)cc1

>  <Energy>  (136) 
71.75337104902718

>  <Genealogy>  (136) 
CCc1ccc(C[NH2+]CCc2c[nH]c3ccccc23)cc1 (protonated)
CCc1ccc(C[NH2+]CCc2c[nH]c3ccccc23)cc1 (3D coordinates assigned)
CCc1ccc(C[NH2+]CCc2c[nH]c3ccccc23)cc1 (optimized conformer: 71.75337104902718 kcal/mol)

$$$$
untitled_line_136
     RDKit          3D

 39 41  0  0  0  0  0  0  0  0999 V2000
    0.8072   -0.4417    1.6708 O   0  0  0  0  0  0  0  0  0  0  0  0
    1.5206    0.4541    1.1427 C   0  0  0  0  0  0  0  0  0  0  0  0
    2.8803    0.7382    1.7029 C   0  0  0  0  0  0  0  0  0  0  0  0
    3.9186   -0.0645    0.9691 C   0  0  0  0  0  0  0  0  0  0  0  0
    4.5704    0.4736   -0.1535 C   0  0  0  0  0  0  0  0  0  0  0  0
    5.5116   -0.2879   -0.8534 C   0  0  0  0  0  0  0  0  0  0  0  0
    5.8019   -1.5922   -0.4439 C   0  0  0  0  0  0  0  0  0  0  0  0
    5.1489   -2.1388    0.6643 C   0  0  0  0  0  0  0  0  0  0  0  0
    4.2070   -1.3809    1.3671 C   0  0  0  0  0  0  0  0  0  0  0  0
    1.0583    1.1600   -0.0176 N   0  0  0  0  0  0  0  0  0  0  0  0
   -0.2468    0.9055   -0.6229 C   0  0  0  0  0  0  0  0  0  0  0  0
   -1.3589    1.5321    0.2210 C   0  0  0  0  0  0  0  0  0  0  0  0
   -2.6994    1.2672   -0.3951 C   0  0  0  0  0  0  0  0  0  0  0  0
   -3.3913    2.1003   -1.2689 C   0  0  0  0  0  0  0  0  0  0  0  0
   -4.5349    1.5063   -1.6806 N   0  0  0  0  0  0  0  0  0  0  0  0
   -4.5636    0.3015   -1.0845 C   0  0  0  0  0  0  0  0  0  0  0  0
   -5.5403   -0.6846   -1.2175 C   0  0  0  0  0  0  0  0  0  0  0  0
   -5.3583   -1.8893   -0.5135 C   0  0  0  0  0  0  0  0  0  0  0  0
   -4.2156   -2.0807    0.2950 C   0  0  0  0  0  0  0  0  0  0  0  0
   -3.2452   -1.0685    0.4087 C   0  0  0  0  0  0  0  0  0  0  0  0
   -3.4566    0.1166   -0.2963 C   0  0  0  0  0  0  0  0  0  0  0  0
    3.0986    1.8249    1.6182 H   0  0  0  0  0  0  0  0  0  0  0  0
    2.9006    0.4888    2.7864 H   0  0  0  0  0  0  0  0  0  0  0  0
    4.3496    1.4802   -0.4863 H   0  0  0  0  0  0  0  0  0  0  0  0
    6.0137    0.1323   -1.7153 H   0  0  0  0  0  0  0  0  0  0  0  0
    6.5297   -2.1806   -0.9876 H   0  0  0  0  0  0  0  0  0  0  0  0
    5.3702   -3.1511    0.9769 H   0  0  0  0  0  0  0  0  0  0  0  0
    3.7014   -1.8190    2.2188 H   0  0  0  0  0  0  0  0  0  0  0  0
    1.6995    1.8391   -0.4863 H   0  0  0  0  0  0  0  0  0  0  0  0
   -0.4043   -0.1905   -0.7270 H   0  0  0  0  0  0  0  0  0  0  0  0
   -0.2680    1.3522   -1.6413 H   0  0  0  0  0  0  0  0  0  0  0  0
   -1.1951    2.6291    0.2943 H   0  0  0  0  0  0  0  0  0  0  0  0
   -1.3421    1.1155    1.2503 H   0  0  0  0  0  0  0  0  0  0  0  0
   -3.0695    3.0813   -1.5936 H   0  0  0  0  0  0  0  0  0  0  0  0
   -5.2419    1.9011   -2.3400 H   0  0  0  0  0  0  0  0  0  0  0  0
   -6.4092   -0.5313   -1.8442 H   0  0  0  0  0  0  0  0  0  0  0  0
   -6.0973   -2.6757   -0.5947 H   0  0  0  0  0  0  0  0  0  0  0  0
   -4.0847   -3.0127    0.8291 H   0  0  0  0  0  0  0  0  0  0  0  0
   -2.3651   -1.2097    1.0227 H   0  0  0  0  0  0  0  0  0  0  0  0
  1  2  2  0
  2  3  1  0
  3  4  1  0
  4  5  2  0
  5  6  1  0
  6  7  2  0
  7  8  1  0
  8  9  2  0
  2 10  1  0
 10 11  1  0
 11 12  1  0
 12 13  1  0
 13 14  2  0
 14 15  1  0
 15 16  1  0
 16 17  2  0
 17 18  1  0
 18 19  2  0
 19 20  1  0
 20 21  2  0
  9  4  1  0
 21 13  1  0
 21 16  1  0
  3 22  1  0
  3 23  1  0
  5 24  1  0
  6 25  1  0
  7 26  1  0
  8 27  1  0
  9 28  1  0
 10 29  1  0
 11 30  1  0
 11 31  1  0
 12 32  1  0
 12 33  1  0
 14 34  1  0
 15 35  1  0
 17 36  1  0
 18 37  1  0
 19 38  1  0
 20 39  1  0
M  END
>  <UniqueID>  (137) 
136

>  <SMILES>  (137) 
O=C(Cc1ccccc1)NCCc1c[nH]c2ccccc12

>  <Energy>  (137) 
66.34409153935363

>  <Genealogy>  (137) 
O=C(Cc1ccccc1)NCCc1c[nH]c2ccccc12 (3D coordinates assigned)
O=C(Cc1ccccc1)NCCc1c[nH]c2ccccc12 (optimized conformer: 66.34409153935363 kcal/mol)

$$$$
untitled_line_137
     RDKit          3D

 32 33  0  0  0  0  0  0  0  0999 V2000
    4.9584    0.9348    0.9555 C   0  0  0  0  0  0  0  0  0  0  0  0
    4.7399   -0.1557   -0.0868 C   0  0  0  0  0  0  0  0  0  0  0  0
    3.3572   -0.7227    0.0250 C   0  0  0  0  0  0  0  0  0  0  0  0
    3.1683   -1.7712    0.6999 O   0  0  0  0  0  0  0  0  0  0  0  0
    2.2521   -0.0526   -0.5948 N   0  0  0  0  0  0  0  0  0  0  0  0
    0.8877   -0.5663   -0.4801 C   0  0  0  0  0  0  0  0  0  0  0  0
   -0.0993    0.3369   -1.2235 C   0  0  0  0  0  0  0  0  0  0  0  0
   -1.4960   -0.1940   -1.1003 C   0  0  0  0  0  0  0  0  0  0  0  0
   -2.1429   -1.0419   -1.9944 C   0  0  0  0  0  0  0  0  0  0  0  0
   -3.3675   -1.3755   -1.5263 N   0  0  0  0  0  0  0  0  0  0  0  0
   -3.4932   -0.7564   -0.3394 C   0  0  0  0  0  0  0  0  0  0  0  0
   -4.5789   -0.8144    0.5334 C   0  0  0  0  0  0  0  0  0  0  0  0
   -4.4897   -0.0999    1.7422 C   0  0  0  0  0  0  0  0  0  0  0  0
   -3.3291    0.6447    2.0497 C   0  0  0  0  0  0  0  0  0  0  0  0
   -2.2477    0.6833    1.1506 C   0  0  0  0  0  0  0  0  0  0  0  0
   -2.3683   -0.0303   -0.0421 C   0  0  0  0  0  0  0  0  0  0  0  0
    4.8339    0.5203    1.9788 H   0  0  0  0  0  0  0  0  0  0  0  0
    4.2342    1.7639    0.8048 H   0  0  0  0  0  0  0  0  0  0  0  0
    5.9875    1.3403    0.8588 H   0  0  0  0  0  0  0  0  0  0  0  0
    5.4911   -0.9617    0.0608 H   0  0  0  0  0  0  0  0  0  0  0  0
    4.8879    0.2686   -1.1031 H   0  0  0  0  0  0  0  0  0  0  0  0
    2.4369    0.8250   -1.1326 H   0  0  0  0  0  0  0  0  0  0  0  0
    0.8463   -1.5915   -0.9093 H   0  0  0  0  0  0  0  0  0  0  0  0
    0.6067   -0.6168    0.5948 H   0  0  0  0  0  0  0  0  0  0  0  0
    0.1810    0.3904   -2.2980 H   0  0  0  0  0  0  0  0  0  0  0  0
   -0.0569    1.3655   -0.8048 H   0  0  0  0  0  0  0  0  0  0  0  0
   -1.7348   -1.4030   -2.9295 H   0  0  0  0  0  0  0  0  0  0  0  0
   -4.0646   -2.0002   -1.9891 H   0  0  0  0  0  0  0  0  0  0  0  0
   -5.4614   -1.3926    0.2918 H   0  0  0  0  0  0  0  0  0  0  0  0
   -5.3145   -0.1236    2.4424 H   0  0  0  0  0  0  0  0  0  0  0  0
   -3.2704    1.1877    2.9840 H   0  0  0  0  0  0  0  0  0  0  0  0
   -1.3539    1.2481    1.3816 H   0  0  0  0  0  0  0  0  0  0  0  0
  1  2  1  0
  2  3  1  0
  3  4  2  0
  3  5  1  0
  5  6  1  0
  6  7  1  0
  7  8  1  0
  8  9  2  0
  9 10  1  0
 10 11  1  0
 11 12  2  0
 12 13  1  0
 13 14  2  0
 14 15  1  0
 15 16  2  0
 16  8  1  0
 16 11  1  0
  1 17  1  0
  1 18  1  0
  1 19  1  0
  2 20  1  0
  2 21  1  0
  5 22  1  0
  6 23  1  0
  6 24  1  0
  7 25  1  0
  7 26  1  0
  9 27  1  0
 10 28  1  0
 12 29  1  0
 13 30  1  0
 14 31  1  0
 15 32  1  0
M  END
>  <UniqueID>  (138) 
137

>  <SMILES>  (138) 
CCC(=O)NCCc1c[nH]c2ccccc12

>  <Energy>  (138) 
54.928568544574574

>  <Genealogy>  (138) 
CCC(=O)NCCc1c[nH]c2ccccc12 (3D coordinates assigned)
CCC(=O)NCCc1c[nH]c2ccccc12 (optimized conformer: 54.928568544574574 kcal/mol)

$$$$
untitled_line_138
     RDKit          3D

 28 29  0  0  0  0  0  0  0  0999 V2000
    0.5260   -1.9672   -1.8282 C   0  0  0  0  0  0  0  0  0  0  0  0
    1.5623   -1.4486   -0.9285 N   0  0  0  0  0  4  0  0  0  0  0  0
    1.8556   -0.0220   -1.1624 C   0  0  0  0  0  0  0  0  0  0  0  0
    0.7044    0.9200   -0.7614 C   0  0  0  0  0  0  0  0  0  0  0  0
    0.3729    0.8224    0.6993 C   0  0  0  0  0  0  0  0  0  0  0  0
   -0.6898    0.1231    1.2642 C   0  0  0  0  0  0  0  0  0  0  0  0
   -0.6486    0.2112    2.6133 N   0  0  0  0  0  0  0  0  0  0  0  0
    0.4336    0.9539    2.9045 C   0  0  0  0  0  0  0  0  0  0  0  0
    0.8982    1.3106    4.1698 C   0  0  0  0  0  0  0  0  0  0  0  0
    2.0666    2.0909    4.2453 C   0  0  0  0  0  0  0  0  0  0  0  0
    2.7373    2.4913    3.0681 C   0  0  0  0  0  0  0  0  0  0  0  0
    2.2460    2.1154    1.8046 C   0  0  0  0  0  0  0  0  0  0  0  0
    1.0849    1.3432    1.7620 C   0  0  0  0  0  0  0  0  0  0  0  0
    0.4739   -3.0737   -1.7374 H   0  0  0  0  0  0  0  0  0  0  0  0
   -0.4716   -1.5626   -1.5567 H   0  0  0  0  0  0  0  0  0  0  0  0
    0.7566   -1.7186   -2.8872 H   0  0  0  0  0  0  0  0  0  0  0  0
    1.2790   -1.6117    0.0650 H   0  0  0  0  0  0  0  0  0  0  0  0
    2.4405   -1.9914   -1.1011 H   0  0  0  0  0  0  0  0  0  0  0  0
    2.7625    0.2595   -0.5823 H   0  0  0  0  0  0  0  0  0  0  0  0
    2.1032    0.1459   -2.2343 H   0  0  0  0  0  0  0  0  0  0  0  0
   -0.1995    0.7152   -1.3717 H   0  0  0  0  0  0  0  0  0  0  0  0
    1.0075    1.9650   -0.9859 H   0  0  0  0  0  0  0  0  0  0  0  0
   -1.4442   -0.4278    0.7179 H   0  0  0  0  0  0  0  0  0  0  0  0
   -1.3184   -0.2201    3.2885 H   0  0  0  0  0  0  0  0  0  0  0  0
    0.3788    0.9969    5.0660 H   0  0  0  0  0  0  0  0  0  0  0  0
    2.4544    2.3854    5.2117 H   0  0  0  0  0  0  0  0  0  0  0  0
    3.6355    3.0908    3.1385 H   0  0  0  0  0  0  0  0  0  0  0  0
    2.7548    2.4187    0.8990 H   0  0  0  0  0  0  0  0  0  0  0  0
  1  2  1  0
  2  3  1  0
  3  4  1  0
  4  5  1  0
  5  6  2  0
  6  7  1  0
  7  8  1  0
  8  9  2  0
  9 10  1  0
 10 11  2  0
 11 12  1  0
 12 13  2  0
 13  5  1  0
 13  8  1  0
  1 14  1  0
  1 15  1  0
  1 16  1  0
  2 17  1  0
  2 18  1  0
  3 19  1  0
  3 20  1  0
  4 21  1  0
  4 22  1  0
  6 23  1  0
  7 24  1  0
  9 25  1  0
 10 26  1  0
 11 27  1  0
 12 28  1  0
M  CHG  1   2   1
M  END
>  <UniqueID>  (139) 
138

>  <SMILES>  (139) 
C[NH2+]CCc1c[nH]c2ccccc12

>  <Energy>  (139) 
57.97063200098997

>  <Genealogy>  (139) 
C[NH2+]CCc1c[nH]c2ccccc12 (protonated)
C[NH2+]CCc1c[nH]c2ccccc12 (3D coordinates assigned)
C[NH2+]CCc1c[nH]c2ccccc12 (optimized conformer: 57.97063200098997 kcal/mol)

$$$$
untitled_line_139
     RDKit          3D

 53 57  0  0  0  0  0  0  0  0999 V2000
    0.2246    1.3463    4.8553 C   0  0  0  0  0  0  0  0  0  0  0  0
    0.1875    1.3184    3.3341 C   0  0  0  0  0  0  0  0  0  0  0  0
    1.3879    1.1973    2.5904 C   0  0  0  0  0  0  0  0  0  0  0  0
    2.6030    0.8462    3.2301 C   0  0  0  0  0  0  0  0  0  0  0  0
    3.7929    0.7563    2.5176 C   0  0  0  0  0  0  0  0  0  0  0  0
    3.8031    0.9952    1.1537 C   0  0  0  0  0  0  0  0  0  0  0  0
    2.6212    1.3071    0.4879 C   0  0  0  0  0  0  0  0  0  0  0  0
    1.3839    1.4054    1.1792 C   0  0  0  0  0  0  0  0  0  0  0  0
    0.1548    1.6767    0.5008 C   0  0  0  0  0  0  0  0  0  0  0  0
    0.1206    1.9564   -1.0081 C   0  0  0  0  0  0  0  0  0  0  0  0
   -0.3893    0.8145   -1.7990 N   0  0  0  0  0  4  0  0  0  0  0  0
    0.6138   -0.2380   -2.0677 C   0  0  0  0  0  0  0  0  0  0  0  0
    0.6652   -1.3372   -0.9873 C   0  0  0  0  0  0  0  0  0  0  0  0
   -0.6371   -2.0714   -0.8472 C   0  0  0  0  0  0  0  0  0  0  0  0
   -1.5686   -1.9164    0.1760 C   0  0  0  0  0  0  0  0  0  0  0  0
   -2.6468   -2.7022   -0.0442 N   0  0  0  0  0  0  0  0  0  0  0  0
   -2.4051   -3.3499   -1.1973 C   0  0  0  0  0  0  0  0  0  0  0  0
   -3.2331   -4.2701   -1.8389 C   0  0  0  0  0  0  0  0  0  0  0  0
   -2.7818   -4.8290   -3.0486 C   0  0  0  0  0  0  0  0  0  0  0  0
   -1.5275   -4.4602   -3.5836 C   0  0  0  0  0  0  0  0  0  0  0  0
   -0.7130   -3.5284   -2.9146 C   0  0  0  0  0  0  0  0  0  0  0  0
   -1.1880   -2.9907   -1.7181 C   0  0  0  0  0  0  0  0  0  0  0  0
   -1.0654    1.6619    1.2433 C   0  0  0  0  0  0  0  0  0  0  0  0
   -2.3233    1.8728    0.6176 C   0  0  0  0  0  0  0  0  0  0  0  0
   -3.5138    1.7783    1.3326 C   0  0  0  0  0  0  0  0  0  0  0  0
   -3.4918    1.4732    2.6840 C   0  0  0  0  0  0  0  0  0  0  0  0
   -2.2772    1.2980    3.3380 C   0  0  0  0  0  0  0  0  0  0  0  0
   -1.0465    1.4276    2.6477 C   0  0  0  0  0  0  0  0  0  0  0  0
    1.1440    1.8371    5.2334 H   0  0  0  0  0  0  0  0  0  0  0  0
   -0.5863    1.9744    5.2759 H   0  0  0  0  0  0  0  0  0  0  0  0
    0.1518    0.3139    5.2565 H   0  0  0  0  0  0  0  0  0  0  0  0
    2.6502    0.5983    4.2805 H   0  0  0  0  0  0  0  0  0  0  0  0
    4.7102    0.4872    3.0256 H   0  0  0  0  0  0  0  0  0  0  0  0
    4.7310    0.9166    0.6012 H   0  0  0  0  0  0  0  0  0  0  0  0
    2.7165    1.4322   -0.5742 H   0  0  0  0  0  0  0  0  0  0  0  0
    1.0710    2.3321   -1.4270 H   0  0  0  0  0  0  0  0  0  0  0  0
   -0.5303    2.8402   -1.1801 H   0  0  0  0  0  0  0  0  0  0  0  0
   -1.2464    0.4064   -1.3671 H   0  0  0  0  0  0  0  0  0  0  0  0
   -0.6888    1.1987   -2.7260 H   0  0  0  0  0  0  0  0  0  0  0  0
    1.6258    0.1989   -2.2009 H   0  0  0  0  0  0  0  0  0  0  0  0
    0.3727   -0.7274   -3.0379 H   0  0  0  0  0  0  0  0  0  0  0  0
    0.9552   -0.9164   -0.0081 H   0  0  0  0  0  0  0  0  0  0  0  0
    1.4541   -2.0689   -1.2639 H   0  0  0  0  0  0  0  0  0  0  0  0
   -1.4653   -1.2600    1.0298 H   0  0  0  0  0  0  0  0  0  0  0  0
   -3.4953   -2.7821    0.5591 H   0  0  0  0  0  0  0  0  0  0  0  0
   -4.1927   -4.5462   -1.4213 H   0  0  0  0  0  0  0  0  0  0  0  0
   -3.3998   -5.5466   -3.5724 H   0  0  0  0  0  0  0  0  0  0  0  0
   -1.1902   -4.8976   -4.5143 H   0  0  0  0  0  0  0  0  0  0  0  0
    0.2503   -3.2444   -3.3173 H   0  0  0  0  0  0  0  0  0  0  0  0
   -2.4233    2.1002   -0.4316 H   0  0  0  0  0  0  0  0  0  0  0  0
   -4.4608    1.9267    0.8293 H   0  0  0  0  0  0  0  0  0  0  0  0
   -4.4212    1.3727    3.2300 H   0  0  0  0  0  0  0  0  0  0  0  0
   -2.3242    1.0270    4.3829 H   0  0  0  0  0  0  0  0  0  0  0  0
  1  2  1  0
  2  3  2  0
  3  4  1  0
  4  5  2  0
  5  6  1  0
  6  7  2  0
  7  8  1  0
  8  9  2  0
  9 10  1  0
 10 11  1  0
 11 12  1  0
 12 13  1  0
 13 14  1  0
 14 15  2  0
 15 16  1  0
 16 17  1  0
 17 18  2  0
 18 19  1  0
 19 20  2  0
 20 21  1  0
 21 22  2  0
  9 23  1  0
 23 24  2  0
 24 25  1  0
 25 26  2  0
 26 27  1  0
 27 28  2  0
 28  2  1  0
  8  3  1  0
 22 14  1  0
 28 23  1  0
 22 17  1  0
  1 29  1  0
  1 30  1  0
  1 31  1  0
  4 32  1  0
  5 33  1  0
  6 34  1  0
  7 35  1  0
 10 36  1  0
 10 37  1  0
 11 38  1  0
 11 39  1  0
 12 40  1  0
 12 41  1  0
 13 42  1  0
 13 43  1  0
 15 44  1  0
 16 45  1  0
 18 46  1  0
 19 47  1  0
 20 48  1  0
 21 49  1  0
 24 50  1  0
 25 51  1  0
 26 52  1  0
 27 53  1  0
M  CHG  1  11   1
M  END
>  <UniqueID>  (140) 
139

>  <SMILES>  (140) 
Cc1c2ccccc2c(C[NH2+]CCc2c[nH]c3ccccc23)c2ccccc12

>  <Energy>  (140) 
115.9963636920197

>  <Genealogy>  (140) 
Cc1c2ccccc2c(C[NH2+]CCc2c[nH]c3ccccc23)c2ccccc12 (protonated)
Cc1c2ccccc2c(C[NH2+]CCc2c[nH]c3ccccc23)c2ccccc12 (3D coordinates assigned)
Cc1c2ccccc2c(C[NH2+]CCc2c[nH]c3ccccc23)c2ccccc12 (optimized conformer: 115.9963636920197 kcal/mol)

$$$$
untitled_line_140
     RDKit          3D

 45 47  0  0  0  0  0  0  0  0999 V2000
   -3.3473   -2.1731   -1.8397 C   0  0  0  0  0  0  0  0  0  0  0  0
   -1.8590   -1.7936   -1.8958 C   0  0  1  0  0  0  0  0  0  0  0  0
   -1.6577   -0.2846   -2.1645 C   0  0  0  0  0  0  0  0  0  0  0  0
   -2.0347    0.5946   -0.9942 C   0  0  0  0  0  0  0  0  0  0  0  0
   -1.0718    0.9353   -0.0290 C   0  0  0  0  0  0  0  0  0  0  0  0
   -1.4148    1.7441    1.0577 C   0  0  0  0  0  0  0  0  0  0  0  0
   -2.7216    2.2189    1.1901 C   0  0  0  0  0  0  0  0  0  0  0  0
   -3.6872    1.8863    0.2353 C   0  0  0  0  0  0  0  0  0  0  0  0
   -3.3473    1.0767   -0.8535 C   0  0  0  0  0  0  0  0  0  0  0  0
   -1.1062   -2.2429   -0.6634 C   0  0  0  0  0  0  0  0  0  0  0  0
   -1.7287   -2.5339    0.3953 O   0  0  0  0  0  0  0  0  0  0  0  0
    0.3265   -2.2753   -0.6803 N   0  0  0  0  0  0  0  0  0  0  0  0
    1.0988   -2.4657    0.5480 C   0  0  0  0  0  0  0  0  0  0  0  0
    2.5777   -2.1191    0.3427 C   0  0  0  0  0  0  0  0  0  0  0  0
    2.7563   -0.6704   -0.0114 C   0  0  0  0  0  0  0  0  0  0  0  0
    2.9773   -0.1511   -1.2835 C   0  0  0  0  0  0  0  0  0  0  0  0
    2.9898    1.2012   -1.2455 N   0  0  0  0  0  0  0  0  0  0  0  0
    2.7693    1.5390    0.0367 C   0  0  0  0  0  0  0  0  0  0  0  0
    2.6566    2.8245    0.5632 C   0  0  0  0  0  0  0  0  0  0  0  0
    2.3864    2.9507    1.9380 C   0  0  0  0  0  0  0  0  0  0  0  0
    2.2334    1.8030    2.7457 C   0  0  0  0  0  0  0  0  0  0  0  0
    2.3482    0.5166    2.1860 C   0  0  0  0  0  0  0  0  0  0  0  0
    2.6204    0.4238    0.8210 C   0  0  0  0  0  0  0  0  0  0  0  0
   -3.4518   -3.2775   -1.7741 H   0  0  0  0  0  0  0  0  0  0  0  0
   -3.8459   -1.7186   -0.9578 H   0  0  0  0  0  0  0  0  0  0  0  0
   -3.8666   -1.8331   -2.7606 H   0  0  0  0  0  0  0  0  0  0  0  0
   -1.4262   -2.3388   -2.7626 H   0  0  0  0  0  0  0  0  0  0  0  0
   -2.2436    0.0150   -3.0612 H   0  0  0  0  0  0  0  0  0  0  0  0
   -0.5923   -0.1039   -2.4275 H   0  0  0  0  0  0  0  0  0  0  0  0
   -0.0571    0.5747   -0.1206 H   0  0  0  0  0  0  0  0  0  0  0  0
   -0.6666    2.0030    1.7952 H   0  0  0  0  0  0  0  0  0  0  0  0
   -2.9867    2.8438    2.0323 H   0  0  0  0  0  0  0  0  0  0  0  0
   -4.6992    2.2542    0.3392 H   0  0  0  0  0  0  0  0  0  0  0  0
   -4.1035    0.8255   -1.5852 H   0  0  0  0  0  0  0  0  0  0  0  0
    0.8193   -2.1032   -1.5866 H   0  0  0  0  0  0  0  0  0  0  0  0
    0.6815   -1.8240    1.3559 H   0  0  0  0  0  0  0  0  0  0  0  0
    1.0119   -3.5246    0.8699 H   0  0  0  0  0  0  0  0  0  0  0  0
    3.1349   -2.3335    1.2794 H   0  0  0  0  0  0  0  0  0  0  0  0
    3.0048   -2.7604   -0.4590 H   0  0  0  0  0  0  0  0  0  0  0  0
    3.1055   -0.7316   -2.1891 H   0  0  0  0  0  0  0  0  0  0  0  0
    3.1216    1.8477   -2.0545 H   0  0  0  0  0  0  0  0  0  0  0  0
    2.7650    3.7004   -0.0659 H   0  0  0  0  0  0  0  0  0  0  0  0
    2.2868    3.9352    2.3784 H   0  0  0  0  0  0  0  0  0  0  0  0
    2.0197    1.9121    3.8011 H   0  0  0  0  0  0  0  0  0  0  0  0
    2.2242   -0.3675    2.7977 H   0  0  0  0  0  0  0  0  0  0  0  0
  1  2  1  0
  2  3  1  0
  3  4  1  0
  4  5  2  0
  5  6  1  0
  6  7  2  0
  7  8  1  0
  8  9  2  0
  2 10  1  0
 10 11  2  0
 10 12  1  0
 12 13  1  0
 13 14  1  0
 14 15  1  0
 15 16  2  0
 16 17  1  0
 17 18  1  0
 18 19  2  0
 19 20  1  0
 20 21  2  0
 21 22  1  0
 22 23  2  0
  9  4  1  0
 23 15  1  0
 23 18  1  0
  1 24  1  0
  1 25  1  0
  1 26  1  0
  2 27  1  6
  3 28  1  0
  3 29  1  0
  5 30  1  0
  6 31  1  0
  7 32  1  0
  8 33  1  0
  9 34  1  0
 12 35  1  0
 13 36  1  0
 13 37  1  0
 14 38  1  0
 14 39  1  0
 16 40  1  0
 17 41  1  0
 19 42  1  0
 20 43  1  0
 21 44  1  0
 22 45  1  0
M  END
>  <UniqueID>  (141) 
140

>  <SMILES>  (141) 
C[C@@H](Cc1ccccc1)C(=O)NCCc1c[nH]c2ccccc12

>  <Energy>  (141) 
68.08263067862586

>  <Genealogy>  (141) 
C[C@@H](Cc1ccccc1)C(=O)NCCc1c[nH]c2ccccc12 (chirality)
C[C@@H](Cc1ccccc1)C(=O)NCCc1c[nH]c2ccccc12 (3D coordinates assigned)
C[C@@H](Cc1ccccc1)C(=O)NCCc1c[nH]c2ccccc12 (optimized conformer: 68.08263067862586 kcal/mol)

$$$$
untitled_line_141
     RDKit          3D

 35 36  0  0  0  0  0  0  0  0999 V2000
   -4.7579   -0.5283   -0.8611 O   0  0  0  0  0  0  0  0  0  0  0  0
   -4.2574    0.4412    0.0249 C   0  0  2  0  0  0  0  0  0  0  0  0
   -2.8734    0.0080    0.5528 C   0  0  0  0  0  0  0  0  0  0  0  0
   -1.8819   -0.0576   -0.5332 N   0  0  0  0  0  4  0  0  0  0  0  0
   -0.5531   -0.3955   -0.0012 C   0  0  0  0  0  0  0  0  0  0  0  0
    0.4804   -0.4766   -1.1311 C   0  0  0  0  0  0  0  0  0  0  0  0
    1.8345   -0.8161   -0.5841 C   0  0  0  0  0  0  0  0  0  0  0  0
    2.3856   -2.0884   -0.4646 C   0  0  0  0  0  0  0  0  0  0  0  0
    3.5936   -2.0243    0.1408 N   0  0  0  0  0  0  0  0  0  0  0  0
    3.8031   -0.7249    0.4159 C   0  0  0  0  0  0  0  0  0  0  0  0
    4.9065   -0.1640    1.0577 C   0  0  0  0  0  0  0  0  0  0  0  0
    4.9097    1.2278    1.2640 C   0  0  0  0  0  0  0  0  0  0  0  0
    3.8209    2.0180    0.8327 C   0  0  0  0  0  0  0  0  0  0  0  0
    2.7196    1.4242    0.1894 C   0  0  0  0  0  0  0  0  0  0  0  0
    2.7482    0.0432   -0.0062 C   0  0  0  0  0  0  0  0  0  0  0  0
   -5.2586    0.6259    1.1728 C   0  0  0  0  0  0  0  0  0  0  0  0
   -6.4855    1.0062    0.6591 F   0  0  0  0  0  0  0  0  0  0  0  0
   -5.4151   -0.5579    1.8729 F   0  0  0  0  0  0  0  0  0  0  0  0
   -4.8187    1.6113    2.0394 F   0  0  0  0  0  0  0  0  0  0  0  0
   -4.4743   -0.2644   -1.7753 H   0  0  0  0  0  0  0  0  0  0  0  0
   -4.1563    1.4263   -0.4908 H   0  0  0  0  0  0  0  0  0  0  0  0
   -2.9628   -0.9886    1.0420 H   0  0  0  0  0  0  0  0  0  0  0  0
   -2.5355    0.7410    1.3201 H   0  0  0  0  0  0  0  0  0  0  0  0
   -2.1688   -0.7926   -1.2214 H   0  0  0  0  0  0  0  0  0  0  0  0
   -1.8330    0.8715   -1.0144 H   0  0  0  0  0  0  0  0  0  0  0  0
   -0.5928   -1.3781    0.5224 H   0  0  0  0  0  0  0  0  0  0  0  0
   -0.2292    0.3805    0.7294 H   0  0  0  0  0  0  0  0  0  0  0  0
    0.5330    0.4959   -1.6662 H   0  0  0  0  0  0  0  0  0  0  0  0
    0.1748   -1.2548   -1.8635 H   0  0  0  0  0  0  0  0  0  0  0  0
    1.9224   -3.0101   -0.7922 H   0  0  0  0  0  0  0  0  0  0  0  0
    4.2252   -2.8259    0.3619 H   0  0  0  0  0  0  0  0  0  0  0  0
    5.7331   -0.7785    1.3902 H   0  0  0  0  0  0  0  0  0  0  0  0
    5.7506    1.6955    1.7592 H   0  0  0  0  0  0  0  0  0  0  0  0
    3.8330    3.0872    0.9997 H   0  0  0  0  0  0  0  0  0  0  0  0
    1.8802    2.0228   -0.1396 H   0  0  0  0  0  0  0  0  0  0  0  0
  1  2  1  0
  2  3  1  0
  3  4  1  0
  4  5  1  0
  5  6  1  0
  6  7  1  0
  7  8  2  0
  8  9  1  0
  9 10  1  0
 10 11  2  0
 11 12  1  0
 12 13  2  0
 13 14  1  0
 14 15  2  0
  2 16  1  0
 16 17  1  0
 16 18  1  0
 16 19  1  0
 15  7  1  0
 15 10  1  0
  1 20  1  0
  2 21  1  6
  3 22  1  0
  3 23  1  0
  4 24  1  0
  4 25  1  0
  5 26  1  0
  5 27  1  0
  6 28  1  0
  6 29  1  0
  8 30  1  0
  9 31  1  0
 11 32  1  0
 12 33  1  0
 13 34  1  0
 14 35  1  0
M  CHG  1   4   1
M  END
>  <UniqueID>  (142) 
141

>  <SMILES>  (142) 
O[C@H](C[NH2+]CCc1c[nH]c2ccccc12)C(F)(F)F

>  <Energy>  (142) 
60.76762649231996

>  <Genealogy>  (142) 
OC(C[NH2+]CCc1c[nH]c2ccccc12)C(F)(F)F (protonated)
O[C@H](C[NH2+]CCc1c[nH]c2ccccc12)C(F)(F)F (chirality)
O[C@H](C[NH2+]CCc1c[nH]c2ccccc12)C(F)(F)F (3D coordinates assigned)
O[C@H](C[NH2+]CCc1c[nH]c2ccccc12)C(F)(F)F (optimized conformer: 60.76762649231996 kcal/mol)

$$$$
untitled_line_142
     RDKit          3D

 50 52  0  0  0  0  0  0  0  0999 V2000
   -1.8734    2.7826    0.7344 C   0  0  0  0  0  0  0  0  0  0  0  0
   -0.7688    3.1009    1.5759 O   0  0  0  0  0  0  0  0  0  0  0  0
    0.3755    2.3001    1.7263 C   0  0  0  0  0  0  0  0  0  0  0  0
    0.5177    1.0810    1.0437 C   0  0  0  0  0  0  0  0  0  0  0  0
    1.6648    0.3006    1.2106 C   0  0  0  0  0  0  0  0  0  0  0  0
    1.8233   -0.9819    0.4344 C   0  0  0  0  0  0  0  0  0  0  0  0
    2.5379   -0.7390   -0.8308 N   0  0  0  0  0  4  0  0  0  0  0  0
    2.4833   -1.9144   -1.7288 C   0  0  0  0  0  0  0  0  0  0  0  0
    1.4850   -1.7325   -2.8872 C   0  0  0  0  0  0  0  0  0  0  0  0
    0.0786   -1.5302   -2.4032 C   0  0  0  0  0  0  0  0  0  0  0  0
   -0.6027   -0.3188   -2.3200 C   0  0  0  0  0  0  0  0  0  0  0  0
   -1.8215   -0.4997   -1.7623 N   0  0  0  0  0  0  0  0  0  0  0  0
   -1.9128   -1.8126   -1.4874 C   0  0  0  0  0  0  0  0  0  0  0  0
   -2.9782   -2.4761   -0.8808 C   0  0  0  0  0  0  0  0  0  0  0  0
   -2.8527   -3.8606   -0.6642 C   0  0  0  0  0  0  0  0  0  0  0  0
   -1.6772   -4.5421   -1.0509 C   0  0  0  0  0  0  0  0  0  0  0  0
   -0.6166   -3.8459   -1.6586 C   0  0  0  0  0  0  0  0  0  0  0  0
   -0.7727   -2.4751   -1.8649 C   0  0  0  0  0  0  0  0  0  0  0  0
    2.6888    0.7503    2.0501 C   0  0  0  0  0  0  0  0  0  0  0  0
    2.5686    1.9673    2.7499 C   0  0  0  0  0  0  0  0  0  0  0  0
    3.5937    2.4123    3.5995 O   0  0  0  0  0  0  0  0  0  0  0  0
    4.8112    1.7158    3.8470 C   0  0  0  0  0  0  0  0  0  0  0  0
    1.3944    2.7484    2.5840 C   0  0  0  0  0  0  0  0  0  0  0  0
    1.1753    3.9780    3.2348 O   0  0  0  0  0  0  0  0  0  0  0  0
    2.0548    4.6238    4.1486 C   0  0  0  0  0  0  0  0  0  0  0  0
   -2.3401    1.8290    1.0604 H   0  0  0  0  0  0  0  0  0  0  0  0
   -2.6295    3.5907    0.8073 H   0  0  0  0  0  0  0  0  0  0  0  0
   -1.5390    2.7031   -0.3217 H   0  0  0  0  0  0  0  0  0  0  0  0
   -0.2602    0.7323    0.3795 H   0  0  0  0  0  0  0  0  0  0  0  0
    2.3834   -1.7233    1.0482 H   0  0  0  0  0  0  0  0  0  0  0  0
    0.8191   -1.4190    0.2447 H   0  0  0  0  0  0  0  0  0  0  0  0
    3.5402   -0.5376   -0.6024 H   0  0  0  0  0  0  0  0  0  0  0  0
    2.1515    0.1103   -1.3066 H   0  0  0  0  0  0  0  0  0  0  0  0
    3.4872   -2.0750   -2.1820 H   0  0  0  0  0  0  0  0  0  0  0  0
    2.2471   -2.8504   -1.1729 H   0  0  0  0  0  0  0  0  0  0  0  0
    1.7939   -0.8662   -3.5113 H   0  0  0  0  0  0  0  0  0  0  0  0
    1.5152   -2.6339   -3.5359 H   0  0  0  0  0  0  0  0  0  0  0  0
   -0.2180    0.6445   -2.6291 H   0  0  0  0  0  0  0  0  0  0  0  0
   -2.5345    0.2376   -1.5665 H   0  0  0  0  0  0  0  0  0  0  0  0
   -3.8722   -1.9441   -0.5820 H   0  0  0  0  0  0  0  0  0  0  0  0
   -3.6610   -4.4063   -0.1952 H   0  0  0  0  0  0  0  0  0  0  0  0
   -1.5903   -5.6065   -0.8756 H   0  0  0  0  0  0  0  0  0  0  0  0
    0.2882   -4.3607   -1.9536 H   0  0  0  0  0  0  0  0  0  0  0  0
    3.5788    0.1441    2.1500 H   0  0  0  0  0  0  0  0  0  0  0  0
    5.4244    2.3024    4.5612 H   0  0  0  0  0  0  0  0  0  0  0  0
    5.3830    1.5979    2.9025 H   0  0  0  0  0  0  0  0  0  0  0  0
    4.5986    0.7220    4.2950 H   0  0  0  0  0  0  0  0  0  0  0  0
    2.2186    3.9844    5.0413 H   0  0  0  0  0  0  0  0  0  0  0  0
    1.5888    5.5729    4.4838 H   0  0  0  0  0  0  0  0  0  0  0  0
    3.0165    4.8680    3.6510 H   0  0  0  0  0  0  0  0  0  0  0  0
  1  2  1  0
  2  3  1  0
  3  4  2  0
  4  5  1  0
  5  6  1  0
  6  7  1  0
  7  8  1  0
  8  9  1  0
  9 10  1  0
 10 11  2  0
 11 12  1  0
 12 13  1  0
 13 14  2  0
 14 15  1  0
 15 16  2  0
 16 17  1  0
 17 18  2  0
  5 19  2  0
 19 20  1  0
 20 21  1  0
 21 22  1  0
 20 23  2  0
 23 24  1  0
 24 25  1  0
 23  3  1  0
 18 10  1  0
 18 13  1  0
  1 26  1  0
  1 27  1  0
  1 28  1  0
  4 29  1  0
  6 30  1  0
  6 31  1  0
  7 32  1  0
  7 33  1  0
  8 34  1  0
  8 35  1  0
  9 36  1  0
  9 37  1  0
 11 38  1  0
 12 39  1  0
 14 40  1  0
 15 41  1  0
 16 42  1  0
 17 43  1  0
 19 44  1  0
 22 45  1  0
 22 46  1  0
 22 47  1  0
 25 48  1  0
 25 49  1  0
 25 50  1  0
M  CHG  1   7   1
M  END
>  <UniqueID>  (143) 
142

>  <SMILES>  (143) 
COc1cc(C[NH2+]CCc2c[nH]c3ccccc23)cc(OC)c1OC

>  <Energy>  (143) 
82.5957916161616

>  <Genealogy>  (143) 
COc1cc(C[NH2+]CCc2c[nH]c3ccccc23)cc(OC)c1OC (protonated)
COc1cc(C[NH2+]CCc2c[nH]c3ccccc23)cc(OC)c1OC (3D coordinates assigned)
COc1cc(C[NH2+]CCc2c[nH]c3ccccc23)cc(OC)c1OC (optimized conformer: 82.5957916161616 kcal/mol)

$$$$
untitled_line_143
     RDKit          3D

 44 47  0  0  0  0  0  0  0  0999 V2000
   -2.9494    1.3040    1.8257 O   0  0  0  0  0  0  0  0  0  0  0  0
   -2.3709    1.1090    0.7220 C   0  0  0  0  0  0  0  0  0  0  0  0
   -1.9608    2.2969   -0.1170 C   0  0  0  0  0  0  0  0  0  0  0  0
   -0.5515    2.7048    0.0784 N   0  0  0  0  0  4  0  0  0  0  0  0
   -0.1881    2.8103    1.4730 C   0  0  0  0  0  0  0  0  0  0  0  0
   -0.7139    3.6365    2.2663 O   0  0  0  0  0  0  0  0  0  0  0  0
    0.8681    1.8771    1.8378 C   0  0  0  0  0  0  0  0  0  0  0  0
    1.4893    1.6264    3.0606 C   0  0  0  0  0  0  0  0  0  0  0  0
    2.5030    0.6512    3.0967 C   0  0  0  0  0  0  0  0  0  0  0  0
    2.8761   -0.0337    1.9196 C   0  0  0  0  0  0  0  0  0  0  0  0
    2.2342    0.2488    0.7010 C   0  0  0  0  0  0  0  0  0  0  0  0
    1.2204    1.2032    0.7023 C   0  0  0  0  0  0  0  0  0  0  0  0
    0.3775    1.6973   -0.3743 C   0  0  0  0  0  0  0  0  0  0  0  0
    0.4670    1.3243   -1.5751 O   0  0  0  0  0  0  0  0  0  0  0  0
   -2.0815   -0.2259    0.2882 N   0  0  0  0  0  0  0  0  0  0  0  0
   -2.4607   -1.3821    1.1006 C   0  0  0  0  0  0  0  0  0  0  0  0
   -2.0291   -2.6992    0.4483 C   0  0  0  0  0  0  0  0  0  0  0  0
   -0.5393   -2.8818    0.5023 C   0  0  0  0  0  0  0  0  0  0  0  0
    0.2052   -3.2373    1.6235 C   0  0  0  0  0  0  0  0  0  0  0  0
    1.5162   -3.3377    1.3083 N   0  0  0  0  0  0  0  0  0  0  0  0
    1.6068   -3.0462   -0.0006 C   0  0  0  0  0  0  0  0  0  0  0  0
    2.7622   -3.0204   -0.7804 C   0  0  0  0  0  0  0  0  0  0  0  0
    2.6321   -2.6703   -2.1365 C   0  0  0  0  0  0  0  0  0  0  0  0
    1.3645   -2.3615   -2.6774 C   0  0  0  0  0  0  0  0  0  0  0  0
    0.2142   -2.4036   -1.8689 C   0  0  0  0  0  0  0  0  0  0  0  0
    0.3740   -2.7517   -0.5268 C   0  0  0  0  0  0  0  0  0  0  0  0
   -2.1418    2.0650   -1.1899 H   0  0  0  0  0  0  0  0  0  0  0  0
   -2.6246    3.1553    0.1296 H   0  0  0  0  0  0  0  0  0  0  0  0
   -0.3539    3.6093   -0.4096 H   0  0  0  0  0  0  0  0  0  0  0  0
    1.2005    2.1631    3.9548 H   0  0  0  0  0  0  0  0  0  0  0  0
    3.0032    0.4293    4.0302 H   0  0  0  0  0  0  0  0  0  0  0  0
    3.6614   -0.7776    1.9537 H   0  0  0  0  0  0  0  0  0  0  0  0
    2.5206   -0.2548   -0.2112 H   0  0  0  0  0  0  0  0  0  0  0  0
   -1.6094   -0.3640   -0.6334 H   0  0  0  0  0  0  0  0  0  0  0  0
   -2.0058   -1.2948    2.1118 H   0  0  0  0  0  0  0  0  0  0  0  0
   -3.5658   -1.3907    1.2192 H   0  0  0  0  0  0  0  0  0  0  0  0
   -2.3932   -2.7417   -0.6002 H   0  0  0  0  0  0  0  0  0  0  0  0
   -2.5051   -3.5412    0.9953 H   0  0  0  0  0  0  0  0  0  0  0  0
   -0.1932   -3.4190    2.6131 H   0  0  0  0  0  0  0  0  0  0  0  0
    2.2969   -3.5904    1.9541 H   0  0  0  0  0  0  0  0  0  0  0  0
    3.7299   -3.2524   -0.3550 H   0  0  0  0  0  0  0  0  0  0  0  0
    3.5098   -2.6348   -2.7686 H   0  0  0  0  0  0  0  0  0  0  0  0
    1.2770   -2.0917   -3.7218 H   0  0  0  0  0  0  0  0  0  0  0  0
   -0.7580   -2.1693   -2.2811 H   0  0  0  0  0  0  0  0  0  0  0  0
  1  2  2  0
  2  3  1  0
  3  4  1  0
  4  5  1  0
  5  6  2  0
  5  7  1  0
  7  8  2  0
  8  9  1  0
  9 10  2  0
 10 11  1  0
 11 12  2  0
 12 13  1  0
 13 14  2  0
  2 15  1  0
 15 16  1  0
 16 17  1  0
 17 18  1  0
 18 19  2  0
 19 20  1  0
 20 21  1  0
 21 22  2  0
 22 23  1  0
 23 24  2  0
 24 25  1  0
 25 26  2  0
 13  4  1  0
 26 18  1  0
 12  7  1  0
 26 21  1  0
  3 27  1  0
  3 28  1  0
  4 29  1  0
  8 30  1  0
  9 31  1  0
 10 32  1  0
 11 33  1  0
 15 34  1  0
 16 35  1  0
 16 36  1  0
 17 37  1  0
 17 38  1  0
 19 39  1  0
 20 40  1  0
 22 41  1  0
 23 42  1  0
 24 43  1  0
 25 44  1  0
M  CHG  1   4   1
M  END
>  <UniqueID>  (144) 
143

>  <SMILES>  (144) 
O=C(C[NH+]1C(=O)c2ccccc2C1=O)NCCc1c[nH]c2ccccc12

>  <Energy>  (144) 
97.84363642094142

>  <Genealogy>  (144) 
O=C(C[NH+]1C(=O)c2ccccc2C1=O)NCCc1c[nH]c2ccccc12 (protonated)
O=C(C[NH+]1C(=O)c2ccccc2C1=O)NCCc1c[nH]c2ccccc12 (3D coordinates assigned)
O=C(C[NH+]1C(=O)c2ccccc2C1=O)NCCc1c[nH]c2ccccc12 (nonaromatic ring conformer: 97.84363642094142 kcal/mol)

$$$$
untitled_line_144
     RDKit          3D

 40 42  0  0  0  0  0  0  0  0999 V2000
   -2.3955    3.1886   -0.6988 O   0  0  0  0  0  0  0  0  0  0  0  0
   -3.1548    2.5836    0.0846 N   0  0  0  0  0  4  0  0  0  0  0  0
   -3.7981    3.3012    1.0668 O   0  0  0  0  0  1  0  0  0  0  0  0
   -3.5279    1.2166   -0.1620 C   0  0  0  0  0  0  0  0  0  0  0  0
   -4.8689    0.8408    0.0318 C   0  0  0  0  0  0  0  0  0  0  0  0
   -5.2847   -0.4706   -0.1990 C   0  0  0  0  0  0  0  0  0  0  0  0
   -4.3667   -1.4303   -0.6181 C   0  0  0  0  0  0  0  0  0  0  0  0
   -3.0278   -1.0843   -0.8009 C   0  0  0  0  0  0  0  0  0  0  0  0
   -2.5855    0.2333   -0.5753 C   0  0  0  0  0  0  0  0  0  0  0  0
   -1.1008    0.5220   -0.7110 C   0  0  0  0  0  0  0  0  0  0  0  0
   -0.4498    0.7645    0.5912 N   0  0  0  0  0  4  0  0  0  0  0  0
   -0.4189   -0.4197    1.4752 C   0  0  0  0  0  0  0  0  0  0  0  0
    0.6068   -1.4858    1.0456 C   0  0  0  0  0  0  0  0  0  0  0  0
    2.0178   -0.9791    1.1373 C   0  0  0  0  0  0  0  0  0  0  0  0
    2.7387   -0.7590    2.3074 C   0  0  0  0  0  0  0  0  0  0  0  0
    3.9566   -0.2450    2.0228 N   0  0  0  0  0  0  0  0  0  0  0  0
    4.0090   -0.1321    0.6843 C   0  0  0  0  0  0  0  0  0  0  0  0
    5.0645    0.3639   -0.0796 C   0  0  0  0  0  0  0  0  0  0  0  0
    4.9028    0.4058   -1.4763 C   0  0  0  0  0  0  0  0  0  0  0  0
    3.7031   -0.0431   -2.0713 C   0  0  0  0  0  0  0  0  0  0  0  0
    2.6540   -0.5381   -1.2756 C   0  0  0  0  0  0  0  0  0  0  0  0
    2.8432   -0.5685    0.1070 C   0  0  0  0  0  0  0  0  0  0  0  0
   -5.6011    1.5726    0.3492 H   0  0  0  0  0  0  0  0  0  0  0  0
   -6.3221   -0.7428   -0.0528 H   0  0  0  0  0  0  0  0  0  0  0  0
   -4.6909   -2.4481   -0.7928 H   0  0  0  0  0  0  0  0  0  0  0  0
   -2.3293   -1.8546   -1.1043 H   0  0  0  0  0  0  0  0  0  0  0  0
   -0.5895   -0.3023   -1.2492 H   0  0  0  0  0  0  0  0  0  0  0  0
   -0.9504    1.4000   -1.3713 H   0  0  0  0  0  0  0  0  0  0  0  0
   -0.9546    1.5322    1.0906 H   0  0  0  0  0  0  0  0  0  0  0  0
    0.5227    1.1098    0.4222 H   0  0  0  0  0  0  0  0  0  0  0  0
   -1.4244   -0.8877    1.5405 H   0  0  0  0  0  0  0  0  0  0  0  0
   -0.1690   -0.0914    2.5092 H   0  0  0  0  0  0  0  0  0  0  0  0
    0.3901   -1.8625    0.0264 H   0  0  0  0  0  0  0  0  0  0  0  0
    0.5089   -2.3576    1.7276 H   0  0  0  0  0  0  0  0  0  0  0  0
    2.3857   -0.9546    3.3116 H   0  0  0  0  0  0  0  0  0  0  0  0
    4.6990    0.0195    2.7079 H   0  0  0  0  0  0  0  0  0  0  0  0
    5.9790    0.7082    0.3858 H   0  0  0  0  0  0  0  0  0  0  0  0
    5.7027    0.7852   -2.0986 H   0  0  0  0  0  0  0  0  0  0  0  0
    3.5899   -0.0062   -3.1469 H   0  0  0  0  0  0  0  0  0  0  0  0
    1.7361   -0.8847   -1.7295 H   0  0  0  0  0  0  0  0  0  0  0  0
  1  2  2  0
  2  3  1  0
  2  4  1  0
  4  5  2  0
  5  6  1  0
  6  7  2  0
  7  8  1  0
  8  9  2  0
  9 10  1  0
 10 11  1  0
 11 12  1  0
 12 13  1  0
 13 14  1  0
 14 15  2  0
 15 16  1  0
 16 17  1  0
 17 18  2  0
 18 19  1  0
 19 20  2  0
 20 21  1  0
 21 22  2  0
  9  4  1  0
 22 14  1  0
 22 17  1  0
  5 23  1  0
  6 24  1  0
  7 25  1  0
  8 26  1  0
 10 27  1  0
 10 28  1  0
 11 29  1  0
 11 30  1  0
 12 31  1  0
 12 32  1  0
 13 33  1  0
 13 34  1  0
 15 35  1  0
 16 36  1  0
 18 37  1  0
 19 38  1  0
 20 39  1  0
 21 40  1  0
M  CHG  3   2   1   3  -1  11   1
M  END
>  <UniqueID>  (145) 
144

>  <SMILES>  (145) 
O=[N+]([O-])c1ccccc1C[NH2+]CCc1c[nH]c2ccccc12

>  <Energy>  (145) 
80.3741813420117

>  <Genealogy>  (145) 
O=[N+]([O-])c1ccccc1C[NH2+]CCc1c[nH]c2ccccc12 (protonated)
O=[N+]([O-])c1ccccc1C[NH2+]CCc1c[nH]c2ccccc12 (3D coordinates assigned)
O=[N+]([O-])c1ccccc1C[NH2+]CCc1c[nH]c2ccccc12 (optimized conformer: 80.3741813420117 kcal/mol)

$$$$
untitled_line_145
     RDKit          3D

 38 40  0  0  0  0  0  0  0  0999 V2000
   -6.5352   -0.8425    0.8102 Cl  0  0  0  0  0  0  0  0  0  0  0  0
   -5.2672    0.0571   -0.0021 C   0  0  0  0  0  0  0  0  0  0  0  0
   -5.4388    1.4188   -0.2722 C   0  0  0  0  0  0  0  0  0  0  0  0
   -4.4276    2.1369   -0.9161 C   0  0  0  0  0  0  0  0  0  0  0  0
   -3.2433    1.4966   -1.2928 C   0  0  0  0  0  0  0  0  0  0  0  0
   -3.0640    0.1284   -1.0290 C   0  0  0  0  0  0  0  0  0  0  0  0
   -1.7777   -0.5637   -1.4136 C   0  0  0  0  0  0  0  0  0  0  0  0
   -0.9044   -0.7921   -0.2494 N   0  0  0  0  0  4  0  0  0  0  0  0
   -0.3077    0.4619    0.2447 C   0  0  0  0  0  0  0  0  0  0  0  0
    0.6020    0.2172    1.4581 C   0  0  0  0  0  0  0  0  0  0  0  0
    1.8326   -0.5582    1.0877 C   0  0  0  0  0  0  0  0  0  0  0  0
    2.0449   -1.9203    1.2800 C   0  0  0  0  0  0  0  0  0  0  0  0
    3.2440   -2.2871    0.7726 N   0  0  0  0  0  0  0  0  0  0  0  0
    3.7861   -1.1706    0.2556 C   0  0  0  0  0  0  0  0  0  0  0  0
    5.0153   -1.0491   -0.3911 C   0  0  0  0  0  0  0  0  0  0  0  0
    5.3834    0.2216   -0.8702 C   0  0  0  0  0  0  0  0  0  0  0  0
    4.5237    1.3291   -0.6958 C   0  0  0  0  0  0  0  0  0  0  0  0
    3.2883    1.1764   -0.0403 C   0  0  0  0  0  0  0  0  0  0  0  0
    2.9525   -0.0949    0.4257 C   0  0  0  0  0  0  0  0  0  0  0  0
   -4.0828   -0.5867   -0.3779 C   0  0  0  0  0  0  0  0  0  0  0  0
   -6.3531    1.9209    0.0175 H   0  0  0  0  0  0  0  0  0  0  0  0
   -4.5607    3.1912   -1.1214 H   0  0  0  0  0  0  0  0  0  0  0  0
   -2.4655    2.0676   -1.7845 H   0  0  0  0  0  0  0  0  0  0  0  0
   -2.0316   -1.5440   -1.8754 H   0  0  0  0  0  0  0  0  0  0  0  0
   -1.2366    0.0141   -2.1968 H   0  0  0  0  0  0  0  0  0  0  0  0
   -1.4462   -1.2577    0.5164 H   0  0  0  0  0  0  0  0  0  0  0  0
   -0.1400   -1.4398   -0.5513 H   0  0  0  0  0  0  0  0  0  0  0  0
    0.2762    0.9576   -0.5632 H   0  0  0  0  0  0  0  0  0  0  0  0
   -1.1093    1.1626    0.5651 H   0  0  0  0  0  0  0  0  0  0  0  0
    0.0385   -0.3232    2.2492 H   0  0  0  0  0  0  0  0  0  0  0  0
    0.9111    1.1967    1.8819 H   0  0  0  0  0  0  0  0  0  0  0  0
    1.3545   -2.6057    1.7541 H   0  0  0  0  0  0  0  0  0  0  0  0
    3.6562   -3.2465    0.7742 H   0  0  0  0  0  0  0  0  0  0  0  0
    5.6656   -1.9042   -0.5231 H   0  0  0  0  0  0  0  0  0  0  0  0
    6.3308    0.3509   -1.3770 H   0  0  0  0  0  0  0  0  0  0  0  0
    4.8168    2.3014   -1.0697 H   0  0  0  0  0  0  0  0  0  0  0  0
    2.6242    2.0199    0.0956 H   0  0  0  0  0  0  0  0  0  0  0  0
   -3.9548   -1.6406   -0.1627 H   0  0  0  0  0  0  0  0  0  0  0  0
  1  2  1  0
  2  3  2  0
  3  4  1  0
  4  5  2  0
  5  6  1  0
  6  7  1  0
  7  8  1  0
  8  9  1  0
  9 10  1  0
 10 11  1  0
 11 12  2  0
 12 13  1  0
 13 14  1  0
 14 15  2  0
 15 16  1  0
 16 17  2  0
 17 18  1  0
 18 19  2  0
  6 20  2  0
 20  2  1  0
 19 11  1  0
 19 14  1  0
  3 21  1  0
  4 22  1  0
  5 23  1  0
  7 24  1  0
  7 25  1  0
  8 26  1  0
  8 27  1  0
  9 28  1  0
  9 29  1  0
 10 30  1  0
 10 31  1  0
 12 32  1  0
 13 33  1  0
 15 34  1  0
 16 35  1  0
 17 36  1  0
 18 37  1  0
 20 38  1  0
M  CHG  1   8   1
M  END
>  <UniqueID>  (146) 
145

>  <SMILES>  (146) 
Clc1cccc(C[NH2+]CCc2c[nH]c3ccccc23)c1

>  <Energy>  (146) 
69.65369052362229

>  <Genealogy>  (146) 
Clc1cccc(C[NH2+]CCc2c[nH]c3ccccc23)c1 (protonated)
Clc1cccc(C[NH2+]CCc2c[nH]c3ccccc23)c1 (3D coordinates assigned)
Clc1cccc(C[NH2+]CCc2c[nH]c3ccccc23)c1 (optimized conformer: 69.65369052362229 kcal/mol)

$$$$
untitled_line_146
     RDKit          3D

 43 45  0  0  0  0  0  0  0  0999 V2000
    4.3781   -0.1483   -3.7171 C   0  0  0  0  0  0  0  0  0  0  0  0
    4.4737   -0.9102   -2.4231 C   0  0  0  0  0  0  0  0  0  0  0  0
    5.6220   -1.6757   -2.1558 C   0  0  0  0  0  0  0  0  0  0  0  0
    5.7335   -2.3934   -0.9635 C   0  0  0  0  0  0  0  0  0  0  0  0
    4.6970   -2.3654   -0.0311 C   0  0  0  0  0  0  0  0  0  0  0  0
    3.5453   -1.6188   -0.2866 C   0  0  0  0  0  0  0  0  0  0  0  0
    3.4218   -0.8782   -1.4767 C   0  0  0  0  0  0  0  0  0  0  0  0
    2.2141   -0.1431   -1.7484 N   0  0  0  0  0  0  0  0  0  0  0  0
    1.5144    0.6203   -0.7514 C   0  0  0  0  0  0  0  0  0  0  0  0
    2.0629    0.8655    0.3572 O   0  0  0  0  0  0  0  0  0  0  0  0
    0.1623    1.1431   -1.0239 C   0  0  0  0  0  0  0  0  0  0  0  0
   -0.3968    0.8814   -2.1233 O   0  0  0  0  0  0  0  0  0  0  0  0
   -0.5212    1.9399   -0.0440 N   0  0  0  0  0  0  0  0  0  0  0  0
   -1.9163    2.3521   -0.1986 C   0  0  0  0  0  0  0  0  0  0  0  0
   -2.8680    1.1631   -0.0248 C   0  0  0  0  0  0  0  0  0  0  0  0
   -2.7020    0.5235    1.3229 C   0  0  0  0  0  0  0  0  0  0  0  0
   -1.8976   -0.5712    1.6261 C   0  0  0  0  0  0  0  0  0  0  0  0
   -1.9249   -0.8231    2.9548 N   0  0  0  0  0  0  0  0  0  0  0  0
   -2.7287    0.1104    3.4935 C   0  0  0  0  0  0  0  0  0  0  0  0
   -3.0495    0.2740    4.8404 C   0  0  0  0  0  0  0  0  0  0  0  0
   -3.8983    1.3406    5.1893 C   0  0  0  0  0  0  0  0  0  0  0  0
   -4.3982    2.2121    4.1960 C   0  0  0  0  0  0  0  0  0  0  0  0
   -4.0554    2.0242    2.8446 C   0  0  0  0  0  0  0  0  0  0  0  0
   -3.2173    0.9545    2.5292 C   0  0  0  0  0  0  0  0  0  0  0  0
    4.0442    0.8930   -3.5234 H   0  0  0  0  0  0  0  0  0  0  0  0
    3.6519   -0.6490   -4.3910 H   0  0  0  0  0  0  0  0  0  0  0  0
    5.3606   -0.0977   -4.2331 H   0  0  0  0  0  0  0  0  0  0  0  0
    6.4348   -1.7170   -2.8704 H   0  0  0  0  0  0  0  0  0  0  0  0
    6.6226   -2.9780   -0.7654 H   0  0  0  0  0  0  0  0  0  0  0  0
    4.7811   -2.9324    0.8871 H   0  0  0  0  0  0  0  0  0  0  0  0
    2.7387   -1.6393    0.4349 H   0  0  0  0  0  0  0  0  0  0  0  0
    1.8576   -0.1205   -2.7299 H   0  0  0  0  0  0  0  0  0  0  0  0
   -0.0100    2.2545    0.8113 H   0  0  0  0  0  0  0  0  0  0  0  0
   -2.0639    2.8092   -1.2007 H   0  0  0  0  0  0  0  0  0  0  0  0
   -2.1576    3.1273    0.5613 H   0  0  0  0  0  0  0  0  0  0  0  0
   -3.9155    1.5154   -0.1372 H   0  0  0  0  0  0  0  0  0  0  0  0
   -2.6854    0.4093   -0.8198 H   0  0  0  0  0  0  0  0  0  0  0  0
   -1.3123   -1.1402    0.9153 H   0  0  0  0  0  0  0  0  0  0  0  0
   -1.4102   -1.5795    3.4581 H   0  0  0  0  0  0  0  0  0  0  0  0
   -2.6562   -0.3949    5.5950 H   0  0  0  0  0  0  0  0  0  0  0  0
   -4.1672    1.4961    6.2259 H   0  0  0  0  0  0  0  0  0  0  0  0
   -5.0476    3.0310    4.4766 H   0  0  0  0  0  0  0  0  0  0  0  0
   -4.4312    2.6904    2.0790 H   0  0  0  0  0  0  0  0  0  0  0  0
  1  2  1  0
  2  3  2  0
  3  4  1  0
  4  5  2  0
  5  6  1  0
  6  7  2  0
  7  8  1  0
  8  9  1  0
  9 10  2  0
  9 11  1  0
 11 12  2  0
 11 13  1  0
 13 14  1  0
 14 15  1  0
 15 16  1  0
 16 17  2  0
 17 18  1  0
 18 19  1  0
 19 20  2  0
 20 21  1  0
 21 22  2  0
 22 23  1  0
 23 24  2  0
  7  2  1  0
 24 16  1  0
 24 19  1  0
  1 25  1  0
  1 26  1  0
  1 27  1  0
  3 28  1  0
  4 29  1  0
  5 30  1  0
  6 31  1  0
  8 32  1  0
 13 33  1  0
 14 34  1  0
 14 35  1  0
 15 36  1  0
 15 37  1  0
 17 38  1  0
 18 39  1  0
 20 40  1  0
 21 41  1  0
 22 42  1  0
 23 43  1  0
M  END
>  <UniqueID>  (147) 
146

>  <SMILES>  (147) 
Cc1ccccc1NC(=O)C(=O)NCCc1c[nH]c2ccccc12

>  <Energy>  (147) 
75.76044590130937

>  <Genealogy>  (147) 
Cc1ccccc1NC(=O)C(=O)NCCc1c[nH]c2ccccc12 (3D coordinates assigned)
Cc1ccccc1NC(=O)C(=O)NCCc1c[nH]c2ccccc12 (optimized conformer: 75.76044590130937 kcal/mol)

$$$$
untitled_line_147
     RDKit          3D

 44 46  0  0  0  0  0  0  0  0999 V2000
    3.1795   -2.8896   -1.3693 C   0  0  0  0  0  0  0  0  0  0  0  0
    1.9863   -3.3878   -2.1783 C   0  0  0  0  0  0  0  0  0  0  0  0
    0.8087   -2.4656   -2.0120 C   0  0  0  0  0  0  0  0  0  0  0  0
    0.6425   -1.3673   -2.8701 C   0  0  0  0  0  0  0  0  0  0  0  0
   -0.4271   -0.4858   -2.6888 C   0  0  0  0  0  0  0  0  0  0  0  0
   -1.3418   -0.6866   -1.6436 C   0  0  0  0  0  0  0  0  0  0  0  0
   -2.4675    0.2960   -1.4203 C   0  0  0  0  0  0  0  0  0  0  0  0
   -1.9909    1.5473   -0.8057 N   0  0  0  0  0  4  0  0  0  0  0  0
   -1.5718    1.3490    0.5917 C   0  0  0  0  0  0  0  0  0  0  0  0
   -1.1174    2.6729    1.2168 C   0  0  0  0  0  0  0  0  0  0  0  0
   -0.6347    2.4531    2.6192 C   0  0  0  0  0  0  0  0  0  0  0  0
   -1.3688    2.6294    3.7882 C   0  0  0  0  0  0  0  0  0  0  0  0
   -0.6373    2.2598    4.8646 N   0  0  0  0  0  0  0  0  0  0  0  0
    0.5459    1.8395    4.3837 C   0  0  0  0  0  0  0  0  0  0  0  0
    1.6240    1.3370    5.1112 C   0  0  0  0  0  0  0  0  0  0  0  0
    2.7653    0.9274    4.3973 C   0  0  0  0  0  0  0  0  0  0  0  0
    2.8015    1.0243    2.9882 C   0  0  0  0  0  0  0  0  0  0  0  0
    1.6979    1.5340    2.2803 C   0  0  0  0  0  0  0  0  0  0  0  0
    0.5834    1.9374    3.0164 C   0  0  0  0  0  0  0  0  0  0  0  0
   -1.1686   -1.7785   -0.7782 C   0  0  0  0  0  0  0  0  0  0  0  0
   -0.0988   -2.6595   -0.9590 C   0  0  0  0  0  0  0  0  0  0  0  0
    3.4826   -1.8774   -1.7130 H   0  0  0  0  0  0  0  0  0  0  0  0
    4.0363   -3.5826   -1.5049 H   0  0  0  0  0  0  0  0  0  0  0  0
    2.9227   -2.8481   -0.2891 H   0  0  0  0  0  0  0  0  0  0  0  0
    1.7188   -4.4137   -1.8435 H   0  0  0  0  0  0  0  0  0  0  0  0
    2.2722   -3.4540   -3.2507 H   0  0  0  0  0  0  0  0  0  0  0  0
    1.3452   -1.1898   -3.6749 H   0  0  0  0  0  0  0  0  0  0  0  0
   -0.5373    0.3593   -3.3570 H   0  0  0  0  0  0  0  0  0  0  0  0
   -3.2712   -0.1588   -0.7981 H   0  0  0  0  0  0  0  0  0  0  0  0
   -2.9326    0.5285   -2.4041 H   0  0  0  0  0  0  0  0  0  0  0  0
   -1.1953    1.9355   -1.3654 H   0  0  0  0  0  0  0  0  0  0  0  0
   -2.7769    2.2389   -0.8285 H   0  0  0  0  0  0  0  0  0  0  0  0
   -2.4173    0.9378    1.1887 H   0  0  0  0  0  0  0  0  0  0  0  0
   -0.7252    0.6288    0.6362 H   0  0  0  0  0  0  0  0  0  0  0  0
   -0.2946    3.1133    0.6135 H   0  0  0  0  0  0  0  0  0  0  0  0
   -1.9630    3.3942    1.2244 H   0  0  0  0  0  0  0  0  0  0  0  0
   -2.3857    2.9952    3.8458 H   0  0  0  0  0  0  0  0  0  0  0  0
   -0.9406    2.2815    5.8636 H   0  0  0  0  0  0  0  0  0  0  0  0
    1.5842    1.2597    6.1900 H   0  0  0  0  0  0  0  0  0  0  0  0
    3.6196    0.5319    4.9311 H   0  0  0  0  0  0  0  0  0  0  0  0
    3.6831    0.7024    2.4494 H   0  0  0  0  0  0  0  0  0  0  0  0
    1.7167    1.6065    1.2006 H   0  0  0  0  0  0  0  0  0  0  0  0
   -1.8530   -1.9394    0.0455 H   0  0  0  0  0  0  0  0  0  0  0  0
    0.0268   -3.4887   -0.2736 H   0  0  0  0  0  0  0  0  0  0  0  0
  1  2  1  0
  2  3  1  0
  3  4  2  0
  4  5  1  0
  5  6  2  0
  6  7  1  0
  7  8  1  0
  8  9  1  0
  9 10  1  0
 10 11  1  0
 11 12  2  0
 12 13  1  0
 13 14  1  0
 14 15  2  0
 15 16  1  0
 16 17  2  0
 17 18  1  0
 18 19  2  0
  6 20  1  0
 20 21  2  0
 21  3  1  0
 19 11  1  0
 19 14  1  0
  1 22  1  0
  1 23  1  0
  1 24  1  0
  2 25  1  0
  2 26  1  0
  4 27  1  0
  5 28  1  0
  7 29  1  0
  7 30  1  0
  8 31  1  0
  8 32  1  0
  9 33  1  0
  9 34  1  0
 10 35  1  0
 10 36  1  0
 12 37  1  0
 13 38  1  0
 15 39  1  0
 16 40  1  0
 17 41  1  0
 18 42  1  0
 20 43  1  0
 21 44  1  0
M  CHG  1   8   1
M  END
>  <UniqueID>  (148) 
147

>  <SMILES>  (148) 
CCc1ccc(C[NH2+]CCc2c[nH]c3ccccc23)cc1

>  <Energy>  (148) 
71.09099789770886

>  <Genealogy>  (148) 
CCc1ccc(C[NH2+]CCc2c[nH]c3ccccc23)cc1 (protonated)
CCc1ccc(C[NH2+]CCc2c[nH]c3ccccc23)cc1 (3D coordinates assigned)
CCc1ccc(C[NH2+]CCc2c[nH]c3ccccc23)cc1 (optimized conformer: 71.09099789770886 kcal/mol)

$$$$
untitled_line_148
     RDKit          3D

 64 67  0  0  0  0  0  0  0  0999 V2000
    0.0324    5.0507    3.9809 O   0  0  0  0  0  0  0  0  0  0  0  0
    0.4807    4.4239    2.9826 C   0  0  0  0  0  0  0  0  0  0  0  0
    0.4784    5.0782    1.6363 C   0  0  0  0  0  0  0  0  0  0  0  0
    1.6720    4.7412    0.9632 O   0  0  0  0  0  0  0  0  0  0  0  0
    1.6998    5.3207   -0.3267 C   0  0  0  0  0  0  0  0  0  0  0  0
    2.4957    4.4040   -1.2461 C   0  0  0  0  0  0  0  0  0  0  0  0
    1.7970    3.1801   -1.3806 O   0  0  0  0  0  0  0  0  0  0  0  0
    2.7022    2.1163   -1.5744 C   0  0  0  0  0  0  0  0  0  0  0  0
    1.9296    0.8577   -1.8110 C   0  0  0  0  0  0  0  0  0  0  0  0
    2.1584    0.1694   -2.8424 O   0  0  0  0  0  0  0  0  0  0  0  0
    0.9292    0.4422   -0.8661 N   0  0  0  0  0  0  0  0  0  0  0  0
    0.1929   -0.8116   -1.0074 C   0  0  0  0  0  0  0  0  0  0  0  0
    1.0851   -1.9980   -0.6313 C   0  0  0  0  0  0  0  0  0  0  0  0
    0.3089   -3.2806   -0.6642 C   0  0  0  0  0  0  0  0  0  0  0  0
   -0.1858   -3.9818    0.4325 C   0  0  0  0  0  0  0  0  0  0  0  0
   -0.8779   -5.0699    0.0227 N   0  0  0  0  0  0  0  0  0  0  0  0
   -0.8307   -5.0581   -1.3206 C   0  0  0  0  0  0  0  0  0  0  0  0
   -1.4198   -5.9715   -2.1942 C   0  0  0  0  0  0  0  0  0  0  0  0
   -1.2591   -5.7569   -3.5762 C   0  0  0  0  0  0  0  0  0  0  0  0
   -0.5224   -4.6471   -4.0478 C   0  0  0  0  0  0  0  0  0  0  0  0
    0.0584   -3.7400   -3.1415 C   0  0  0  0  0  0  0  0  0  0  0  0
   -0.1171   -3.9793   -1.7777 C   0  0  0  0  0  0  0  0  0  0  0  0
    0.9509    3.0757    3.1242 N   0  0  0  0  0  0  0  0  0  0  0  0
    0.9632    2.3698    4.4056 C   0  0  0  0  0  0  0  0  0  0  0  0
   -0.4447    1.9093    4.7959 C   0  0  0  0  0  0  0  0  0  0  0  0
   -1.0577    1.0582    3.7208 C   0  0  0  0  0  0  0  0  0  0  0  0
   -0.7337   -0.2625    3.4255 C   0  0  0  0  0  0  0  0  0  0  0  0
   -1.4635   -0.7032    2.3742 N   0  0  0  0  0  0  0  0  0  0  0  0
   -2.2331    0.3317    1.9923 C   0  0  0  0  0  0  0  0  0  0  0  0
   -3.1402    0.3645    0.9323 C   0  0  0  0  0  0  0  0  0  0  0  0
   -3.8267    1.5686    0.6903 C   0  0  0  0  0  0  0  0  0  0  0  0
   -3.6001    2.6985    1.5076 C   0  0  0  0  0  0  0  0  0  0  0  0
   -2.6728    2.6383    2.5655 C   0  0  0  0  0  0  0  0  0  0  0  0
   -2.0093    1.4289    2.7850 C   0  0  0  0  0  0  0  0  0  0  0  0
    0.3994    6.1822    1.7603 H   0  0  0  0  0  0  0  0  0  0  0  0
   -0.4096    4.6985    1.0831 H   0  0  0  0  0  0  0  0  0  0  0  0
    2.2050    6.3101   -0.2726 H   0  0  0  0  0  0  0  0  0  0  0  0
    0.6873    5.4644   -0.7754 H   0  0  0  0  0  0  0  0  0  0  0  0
    3.5187    4.2883   -0.8127 H   0  0  0  0  0  0  0  0  0  0  0  0
    2.5897    4.8846   -2.2459 H   0  0  0  0  0  0  0  0  0  0  0  0
    3.3257    1.9651   -0.6646 H   0  0  0  0  0  0  0  0  0  0  0  0
    3.3677    2.3147   -2.4462 H   0  0  0  0  0  0  0  0  0  0  0  0
    0.7282    1.0491   -0.0394 H   0  0  0  0  0  0  0  0  0  0  0  0
   -0.6880   -0.7897   -0.3313 H   0  0  0  0  0  0  0  0  0  0  0  0
   -0.1830   -0.9143   -2.0492 H   0  0  0  0  0  0  0  0  0  0  0  0
    1.9386   -2.0755   -1.3380 H   0  0  0  0  0  0  0  0  0  0  0  0
    1.4995   -1.8378    0.3883 H   0  0  0  0  0  0  0  0  0  0  0  0
   -0.0559   -3.7066    1.4734 H   0  0  0  0  0  0  0  0  0  0  0  0
   -1.3625   -5.7684    0.6301 H   0  0  0  0  0  0  0  0  0  0  0  0
   -1.9867   -6.8165   -1.8236 H   0  0  0  0  0  0  0  0  0  0  0  0
   -1.7066   -6.4439   -4.2836 H   0  0  0  0  0  0  0  0  0  0  0  0
   -0.4069   -4.4938   -5.1142 H   0  0  0  0  0  0  0  0  0  0  0  0
    0.6212   -2.8857   -3.4954 H   0  0  0  0  0  0  0  0  0  0  0  0
    1.3154    2.5729    2.2847 H   0  0  0  0  0  0  0  0  0  0  0  0
    1.6284    1.4800    4.3272 H   0  0  0  0  0  0  0  0  0  0  0  0
    1.3800    3.0283    5.1978 H   0  0  0  0  0  0  0  0  0  0  0  0
   -0.3809    1.3162    5.7321 H   0  0  0  0  0  0  0  0  0  0  0  0
   -1.0888    2.7867    5.0089 H   0  0  0  0  0  0  0  0  0  0  0  0
    0.0028   -0.8623    3.9444 H   0  0  0  0  0  0  0  0  0  0  0  0
   -1.4225   -1.6525    1.9410 H   0  0  0  0  0  0  0  0  0  0  0  0
   -3.3030   -0.5060    0.3099 H   0  0  0  0  0  0  0  0  0  0  0  0
   -4.5386    1.6313   -0.1235 H   0  0  0  0  0  0  0  0  0  0  0  0
   -4.1363    3.6192    1.3131 H   0  0  0  0  0  0  0  0  0  0  0  0
   -2.4838    3.5052    3.1844 H   0  0  0  0  0  0  0  0  0  0  0  0
  1  2  2  0
  2  3  1  0
  3  4  1  0
  4  5  1  0
  5  6  1  0
  6  7  1  0
  7  8  1  0
  8  9  1  0
  9 10  2  0
  9 11  1  0
 11 12  1  0
 12 13  1  0
 13 14  1  0
 14 15  2  0
 15 16  1  0
 16 17  1  0
 17 18  2  0
 18 19  1  0
 19 20  2  0
 20 21  1  0
 21 22  2  0
  2 23  1  0
 23 24  1  0
 24 25  1  0
 25 26  1  0
 26 27  2  0
 27 28  1  0
 28 29  1  0
 29 30  2  0
 30 31  1  0
 31 32  2  0
 32 33  1  0
 33 34  2  0
 22 14  1  0
 34 26  1  0
 22 17  1  0
 34 29  1  0
  3 35  1  0
  3 36  1  0
  5 37  1  0
  5 38  1  0
  6 39  1  0
  6 40  1  0
  8 41  1  0
  8 42  1  0
 11 43  1  0
 12 44  1  0
 12 45  1  0
 13 46  1  0
 13 47  1  0
 15 48  1  0
 16 49  1  0
 18 50  1  0
 19 51  1  0
 20 52  1  0
 21 53  1  0
 23 54  1  0
 24 55  1  0
 24 56  1  0
 25 57  1  0
 25 58  1  0
 27 59  1  0
 28 60  1  0
 30 61  1  0
 31 62  1  0
 32 63  1  0
 33 64  1  0
M  END
>  <UniqueID>  (149) 
148

>  <SMILES>  (149) 
O=C(COCCOCC(=O)NCCc1c[nH]c2ccccc12)NCCc1c[nH]c2ccccc12

>  <Energy>  (149) 
116.90350839921365

>  <Genealogy>  (149) 
O=C(COCCOCC(=O)NCCc1c[nH]c2ccccc12)NCCc1c[nH]c2ccccc12 (3D coordinates assigned)
O=C(COCCOCC(=O)NCCc1c[nH]c2ccccc12)NCCc1c[nH]c2ccccc12 (optimized conformer: 116.90350839921365 kcal/mol)

$$$$
untitled_line_149
     RDKit          3D

 38 39  0  0  0  0  0  0  0  0999 V2000
    1.0205    1.6483    2.3039 C   0  0  0  0  0  0  0  0  0  0  0  0
    2.3974    1.3411    1.7008 C   0  0  0  0  0  0  0  0  0  0  0  0
    3.0376    2.6030    1.1059 C   0  0  0  0  0  0  0  0  0  0  0  0
    2.3398    0.1831    0.6809 C   0  0  0  0  0  0  0  0  0  0  0  0
    1.5243    0.4960   -0.4951 N   0  0  0  0  0  0  0  0  0  0  0  0
    1.3638   -0.4485   -1.5613 C   0  0  0  0  0  0  0  0  0  0  0  0
    1.9573   -1.5603   -1.5215 O   0  0  0  0  0  0  0  0  0  0  0  0
    0.4458   -0.1415   -2.7087 C   0  0  0  0  0  0  0  0  0  0  0  0
   -0.9719   -0.6648   -2.4524 C   0  0  0  0  0  0  0  0  0  0  0  0
   -1.6330    0.0557   -1.3116 C   0  0  0  0  0  0  0  0  0  0  0  0
   -2.2443    1.3047   -1.3673 C   0  0  0  0  0  0  0  0  0  0  0  0
   -2.6668    1.6791   -0.1382 N   0  0  0  0  0  0  0  0  0  0  0  0
   -2.3187    0.6825    0.6943 C   0  0  0  0  0  0  0  0  0  0  0  0
   -2.5275    0.6211    2.0713 C   0  0  0  0  0  0  0  0  0  0  0  0
   -2.0585   -0.5140    2.7573 C   0  0  0  0  0  0  0  0  0  0  0  0
   -1.3916   -1.5463    2.0611 C   0  0  0  0  0  0  0  0  0  0  0  0
   -1.1940   -1.4568    0.6713 C   0  0  0  0  0  0  0  0  0  0  0  0
   -1.6790   -0.3239    0.0165 C   0  0  0  0  0  0  0  0  0  0  0  0
    1.1197    2.4064    3.1095 H   0  0  0  0  0  0  0  0  0  0  0  0
    0.3196    2.0413    1.5387 H   0  0  0  0  0  0  0  0  0  0  0  0
    0.5888    0.7286    2.7510 H   0  0  0  0  0  0  0  0  0  0  0  0
    3.0519    1.0042    2.5353 H   0  0  0  0  0  0  0  0  0  0  0  0
    4.0308    2.3598    0.6716 H   0  0  0  0  0  0  0  0  0  0  0  0
    2.3987    3.0476    0.3148 H   0  0  0  0  0  0  0  0  0  0  0  0
    3.1866    3.3627    1.9026 H   0  0  0  0  0  0  0  0  0  0  0  0
    3.3740   -0.0593    0.3518 H   0  0  0  0  0  0  0  0  0  0  0  0
    1.9265   -0.7210    1.1794 H   0  0  0  0  0  0  0  0  0  0  0  0
    1.0203    1.4072   -0.5671 H   0  0  0  0  0  0  0  0  0  0  0  0
    0.4183    0.9550   -2.8913 H   0  0  0  0  0  0  0  0  0  0  0  0
    0.8449   -0.6193   -3.6296 H   0  0  0  0  0  0  0  0  0  0  0  0
   -0.9458   -1.7575   -2.2537 H   0  0  0  0  0  0  0  0  0  0  0  0
   -1.5804   -0.5118   -3.3695 H   0  0  0  0  0  0  0  0  0  0  0  0
   -2.3607    1.9106   -2.2563 H   0  0  0  0  0  0  0  0  0  0  0  0
   -3.1522    2.5691    0.1114 H   0  0  0  0  0  0  0  0  0  0  0  0
   -3.0295    1.4223    2.5977 H   0  0  0  0  0  0  0  0  0  0  0  0
   -2.2023   -0.5927    3.8270 H   0  0  0  0  0  0  0  0  0  0  0  0
   -1.0276   -2.4109    2.6003 H   0  0  0  0  0  0  0  0  0  0  0  0
   -0.6786   -2.2422    0.1347 H   0  0  0  0  0  0  0  0  0  0  0  0
  1  2  1  0
  2  3  1  0
  2  4  1  0
  4  5  1  0
  5  6  1  0
  6  7  2  0
  6  8  1  0
  8  9  1  0
  9 10  1  0
 10 11  2  0
 11 12  1  0
 12 13  1  0
 13 14  2  0
 14 15  1  0
 15 16  2  0
 16 17  1  0
 17 18  2  0
 18 10  1  0
 18 13  1  0
  1 19  1  0
  1 20  1  0
  1 21  1  0
  2 22  1  0
  3 23  1  0
  3 24  1  0
  3 25  1  0
  4 26  1  0
  4 27  1  0
  5 28  1  0
  8 29  1  0
  8 30  1  0
  9 31  1  0
  9 32  1  0
 11 33  1  0
 12 34  1  0
 14 35  1  0
 15 36  1  0
 16 37  1  0
 17 38  1  0
M  END
>  <UniqueID>  (150) 
149

>  <SMILES>  (150) 
CC(C)CNC(=O)CCc1c[nH]c2ccccc12

>  <Energy>  (150) 
55.54431373646676

>  <Genealogy>  (150) 
CC(C)CNC(=O)CCc1c[nH]c2ccccc12 (3D coordinates assigned)
CC(C)CNC(=O)CCc1c[nH]c2ccccc12 (optimized conformer: 55.54431373646676 kcal/mol)

$$$$
untitled_line_150
     RDKit          3D

 46 48  0  0  0  0  0  0  0  0999 V2000
    0.2772    1.8333    0.1870 S   0  0  0  0  0  0  0  0  0  0  0  0
    0.7076    0.5798   -0.3956 C   0  0  0  0  0  0  0  0  0  0  0  0
   -0.2742   -0.4032   -0.8145 N   0  0  0  0  0  4  0  0  0  0  0  0
   -0.7883   -0.1258   -2.1729 C   0  0  0  0  0  0  0  0  0  0  0  0
   -2.0585    0.7441   -2.1730 C   0  0  0  0  0  0  0  0  0  0  0  0
   -3.2393    0.0099   -1.6035 C   0  0  0  0  0  0  0  0  0  0  0  0
   -3.9374   -1.0270   -2.2161 C   0  0  0  0  0  0  0  0  0  0  0  0
   -4.9125   -1.4875   -1.4003 N   0  0  0  0  0  0  0  0  0  0  0  0
   -4.8337   -0.7547   -0.2762 C   0  0  0  0  0  0  0  0  0  0  0  0
   -5.6285   -0.8702    0.8635 C   0  0  0  0  0  0  0  0  0  0  0  0
   -5.3656   -0.0031    1.9394 C   0  0  0  0  0  0  0  0  0  0  0  0
   -4.3259    0.9489    1.8534 C   0  0  0  0  0  0  0  0  0  0  0  0
   -3.5395    1.0429    0.6909 C   0  0  0  0  0  0  0  0  0  0  0  0
   -3.8233    0.1699   -0.3605 C   0  0  0  0  0  0  0  0  0  0  0  0
    2.1217    0.3149   -0.5873 N   0  0  0  0  0  4  0  0  0  0  0  0
    2.6733   -0.5810    0.4597 C   0  0  0  0  0  0  0  0  0  0  0  0
    4.0446   -1.1557    0.0337 C   0  0  0  0  0  0  0  0  0  0  0  0
    5.1535   -0.0944    0.0608 C   0  0  0  0  0  0  0  0  0  0  0  0
    5.2588    0.5581    1.4435 C   0  0  0  0  0  0  0  0  0  0  0  0
    3.9183    1.1597    1.8798 C   0  0  0  0  0  0  0  0  0  0  0  0
    2.8005    0.1075    1.8426 C   0  0  0  0  0  0  0  0  0  0  0  0
   -1.0450   -0.4807   -0.1108 H   0  0  0  0  0  0  0  0  0  0  0  0
    0.1893   -1.3402   -0.8412 H   0  0  0  0  0  0  0  0  0  0  0  0
   -1.0211   -1.0870   -2.6852 H   0  0  0  0  0  0  0  0  0  0  0  0
   -0.0106    0.3709   -2.7969 H   0  0  0  0  0  0  0  0  0  0  0  0
   -1.8864    1.6920   -1.6255 H   0  0  0  0  0  0  0  0  0  0  0  0
   -2.2964    1.0198   -3.2228 H   0  0  0  0  0  0  0  0  0  0  0  0
   -3.7357   -1.4271   -3.2013 H   0  0  0  0  0  0  0  0  0  0  0  0
   -5.5833   -2.2617   -1.6032 H   0  0  0  0  0  0  0  0  0  0  0  0
   -6.4214   -1.6048    0.9210 H   0  0  0  0  0  0  0  0  0  0  0  0
   -5.9634   -0.0667    2.8392 H   0  0  0  0  0  0  0  0  0  0  0  0
   -4.1325    1.6107    2.6875 H   0  0  0  0  0  0  0  0  0  0  0  0
   -2.7438    1.7715    0.6225 H   0  0  0  0  0  0  0  0  0  0  0  0
    2.2196   -0.1502   -1.5197 H   0  0  0  0  0  0  0  0  0  0  0  0
    2.6675    1.2055   -0.6485 H   0  0  0  0  0  0  0  0  0  0  0  0
    1.9948   -1.4542    0.5879 H   0  0  0  0  0  0  0  0  0  0  0  0
    3.9774   -1.5934   -0.9857 H   0  0  0  0  0  0  0  0  0  0  0  0
    4.3225   -1.9830    0.7239 H   0  0  0  0  0  0  0  0  0  0  0  0
    6.1234   -0.5771   -0.1866 H   0  0  0  0  0  0  0  0  0  0  0  0
    4.9609    0.6820   -0.7103 H   0  0  0  0  0  0  0  0  0  0  0  0
    5.5858   -0.2005    2.1884 H   0  0  0  0  0  0  0  0  0  0  0  0
    6.0278    1.3597    1.4132 H   0  0  0  0  0  0  0  0  0  0  0  0
    4.0168    1.5455    2.9173 H   0  0  0  0  0  0  0  0  0  0  0  0
    3.6604    2.0231    1.2309 H   0  0  0  0  0  0  0  0  0  0  0  0
    3.0240   -0.6699    2.6064 H   0  0  0  0  0  0  0  0  0  0  0  0
    1.8407    0.5721    2.1452 H   0  0  0  0  0  0  0  0  0  0  0  0
  1  2  2  0
  2  3  1  0
  3  4  1  0
  4  5  1  0
  5  6  1  0
  6  7  2  0
  7  8  1  0
  8  9  1  0
  9 10  2  0
 10 11  1  0
 11 12  2  0
 12 13  1  0
 13 14  2  0
  2 15  1  0
 15 16  1  0
 16 17  1  0
 17 18  1  0
 18 19  1  0
 19 20  1  0
 20 21  1  0
 14  6  1  0
 21 16  1  0
 14  9  1  0
  3 22  1  0
  3 23  1  0
  4 24  1  0
  4 25  1  0
  5 26  1  0
  5 27  1  0
  7 28  1  0
  8 29  1  0
 10 30  1  0
 11 31  1  0
 12 32  1  0
 13 33  1  0
 15 34  1  0
 15 35  1  0
 16 36  1  0
 17 37  1  0
 17 38  1  0
 18 39  1  0
 18 40  1  0
 19 41  1  0
 19 42  1  0
 20 43  1  0
 20 44  1  0
 21 45  1  0
 21 46  1  0
M  CHG  2   3   1  15   1
M  END
>  <UniqueID>  (151) 
150

>  <SMILES>  (151) 
S=C([NH2+]CCc1c[nH]c2ccccc12)[NH2+]C1CCCCC1

>  <Energy>  (151) 
77.70128245316172

>  <Genealogy>  (151) 
S=C([NH2+]CCc1c[nH]c2ccccc12)[NH2+]C1CCCCC1 (protonated)
S=C([NH2+]CCc1c[nH]c2ccccc12)[NH2+]C1CCCCC1 (3D coordinates assigned)
S=C([NH2+]CCc1c[nH]c2ccccc12)[NH2+]C1CCCCC1 (nonaromatic ring conformer: 77.70128245316172 kcal/mol)

$$$$
untitled_line_151
     RDKit          3D

 42 45  0  0  0  0  0  0  0  0999 V2000
   -0.8820    0.3003   -1.1719 O   0  0  0  0  0  0  0  0  0  0  0  0
   -1.0394   -0.8852   -1.5730 C   0  0  0  0  0  0  0  0  0  0  0  0
    0.1047   -1.7235   -1.7966 N   0  0  0  0  0  0  0  0  0  0  0  0
    1.4626   -1.2933   -1.4710 C   0  0  0  0  0  0  0  0  0  0  0  0
    1.6816   -1.3202    0.0436 C   0  0  0  0  0  0  0  0  0  0  0  0
    3.0607   -0.8429    0.3846 C   0  0  0  0  0  0  0  0  0  0  0  0
    4.1938   -1.6317    0.5586 C   0  0  0  0  0  0  0  0  0  0  0  0
    5.2782   -0.8553    0.7859 N   0  0  0  0  0  0  0  0  0  0  0  0
    4.8410    0.4156    0.7437 C   0  0  0  0  0  0  0  0  0  0  0  0
    5.5979    1.5758    0.9020 C   0  0  0  0  0  0  0  0  0  0  0  0
    4.9349    2.8126    0.7982 C   0  0  0  0  0  0  0  0  0  0  0  0
    3.5472    2.8614    0.5376 C   0  0  0  0  0  0  0  0  0  0  0  0
    2.8091    1.6742    0.3804 C   0  0  0  0  0  0  0  0  0  0  0  0
    3.4933    0.4637    0.4948 C   0  0  0  0  0  0  0  0  0  0  0  0
   -2.3986   -1.3900   -1.8439 C   0  0  0  0  0  0  0  0  0  0  0  0
   -2.5484   -2.3828   -2.6053 O   0  0  0  0  0  0  0  0  0  0  0  0
   -3.5962   -0.7361   -1.2839 C   0  0  0  0  0  0  0  0  0  0  0  0
   -4.8229   -0.6015   -1.9280 C   0  0  0  0  0  0  0  0  0  0  0  0
   -5.7106    0.0333   -1.1303 N   0  0  0  0  0  0  0  0  0  0  0  0
   -5.0634    0.2860    0.0200 C   0  0  0  0  0  0  0  0  0  0  0  0
   -5.5852    0.8925    1.1619 C   0  0  0  0  0  0  0  0  0  0  0  0
   -4.7472    1.0138    2.2844 C   0  0  0  0  0  0  0  0  0  0  0  0
   -3.4258    0.5184    2.2466 C   0  0  0  0  0  0  0  0  0  0  0  0
   -2.9264   -0.0936    1.0828 C   0  0  0  0  0  0  0  0  0  0  0  0
   -3.7705   -0.1749   -0.0283 C   0  0  0  0  0  0  0  0  0  0  0  0
   -0.0245   -2.6683   -2.2237 H   0  0  0  0  0  0  0  0  0  0  0  0
    2.1890   -1.9824   -1.9554 H   0  0  0  0  0  0  0  0  0  0  0  0
    1.6390   -0.2720   -1.8747 H   0  0  0  0  0  0  0  0  0  0  0  0
    0.9361   -0.6731    0.5526 H   0  0  0  0  0  0  0  0  0  0  0  0
    1.5445   -2.3573    0.4194 H   0  0  0  0  0  0  0  0  0  0  0  0
    4.2241   -2.7124    0.5103 H   0  0  0  0  0  0  0  0  0  0  0  0
    6.2574   -1.1808    0.9460 H   0  0  0  0  0  0  0  0  0  0  0  0
    6.6618    1.5284    1.0953 H   0  0  0  0  0  0  0  0  0  0  0  0
    5.4927    3.7325    0.9156 H   0  0  0  0  0  0  0  0  0  0  0  0
    3.0486    3.8185    0.4566 H   0  0  0  0  0  0  0  0  0  0  0  0
    1.7466    1.7040    0.1762 H   0  0  0  0  0  0  0  0  0  0  0  0
   -5.0511   -0.9445   -2.9289 H   0  0  0  0  0  0  0  0  0  0  0  0
   -6.7031    0.2632   -1.3594 H   0  0  0  0  0  0  0  0  0  0  0  0
   -6.6062    1.2508    1.1884 H   0  0  0  0  0  0  0  0  0  0  0  0
   -5.1219    1.4781    3.1872 H   0  0  0  0  0  0  0  0  0  0  0  0
   -2.7956    0.6010    3.1225 H   0  0  0  0  0  0  0  0  0  0  0  0
   -1.9256   -0.5023    1.0686 H   0  0  0  0  0  0  0  0  0  0  0  0
  1  2  2  0
  2  3  1  0
  3  4  1  0
  4  5  1  0
  5  6  1  0
  6  7  2  0
  7  8  1  0
  8  9  1  0
  9 10  2  0
 10 11  1  0
 11 12  2  0
 12 13  1  0
 13 14  2  0
  2 15  1  0
 15 16  2  0
 15 17  1  0
 17 18  2  0
 18 19  1  0
 19 20  1  0
 20 21  2  0
 21 22  1  0
 22 23  2  0
 23 24  1  0
 24 25  2  0
 14  6  1  0
 25 17  1  0
 14  9  1  0
 25 20  1  0
  3 26  1  0
  4 27  1  0
  4 28  1  0
  5 29  1  0
  5 30  1  0
  7 31  1  0
  8 32  1  0
 10 33  1  0
 11 34  1  0
 12 35  1  0
 13 36  1  0
 18 37  1  0
 19 38  1  0
 21 39  1  0
 22 40  1  0
 23 41  1  0
 24 42  1  0
M  END
>  <UniqueID>  (152) 
151

>  <SMILES>  (152) 
O=C(NCCc1c[nH]c2ccccc12)C(=O)c1c[nH]c2ccccc12

>  <Energy>  (152) 
110.32746010011323

>  <Genealogy>  (152) 
O=C(NCCc1c[nH]c2ccccc12)C(=O)c1c[nH]c2ccccc12 (3D coordinates assigned)
O=C(NCCc1c[nH]c2ccccc12)C(=O)c1c[nH]c2ccccc12 (optimized conformer: 110.32746010011323 kcal/mol)

$$$$
untitled_line_152
     RDKit          3D

 38 40  0  0  0  0  0  0  0  0999 V2000
    3.4214   -2.2035   -2.4943 Cl  0  0  0  0  0  0  0  0  0  0  0  0
    3.0196   -2.3531   -0.7865 C   0  0  0  0  0  0  0  0  0  0  0  0
    3.7740   -3.2355   -0.0030 C   0  0  0  0  0  0  0  0  0  0  0  0
    3.5034   -3.3781    1.3596 C   0  0  0  0  0  0  0  0  0  0  0  0
    2.4794   -2.6361    1.9499 C   0  0  0  0  0  0  0  0  0  0  0  0
    1.7201   -1.7532    1.1784 C   0  0  0  0  0  0  0  0  0  0  0  0
    1.9711   -1.6106   -0.1979 C   0  0  0  0  0  0  0  0  0  0  0  0
    1.1538   -0.6206   -0.9950 C   0  0  0  0  0  0  0  0  0  0  0  0
    1.8299    0.6870   -1.0501 N   0  0  0  0  0  4  0  0  0  0  0  0
    0.9887    1.7176   -1.6992 C   0  0  0  0  0  0  0  0  0  0  0  0
    0.3407    2.6812   -0.6885 C   0  0  0  0  0  0  0  0  0  0  0  0
   -0.6104    1.9792    0.2350 C   0  0  0  0  0  0  0  0  0  0  0  0
   -0.3493    1.5707    1.5398 C   0  0  0  0  0  0  0  0  0  0  0  0
   -1.4068    0.8943    2.0432 N   0  0  0  0  0  0  0  0  0  0  0  0
   -2.3293    0.8661    1.0656 C   0  0  0  0  0  0  0  0  0  0  0  0
   -3.5829    0.2575    1.1043 C   0  0  0  0  0  0  0  0  0  0  0  0
   -4.3846    0.3296   -0.0497 C   0  0  0  0  0  0  0  0  0  0  0  0
   -3.9189    0.9972   -1.2044 C   0  0  0  0  0  0  0  0  0  0  0  0
   -2.6479    1.5999   -1.2155 C   0  0  0  0  0  0  0  0  0  0  0  0
   -1.8788    1.5164   -0.0548 C   0  0  0  0  0  0  0  0  0  0  0  0
    4.5754   -3.8102   -0.4498 H   0  0  0  0  0  0  0  0  0  0  0  0
    4.0913   -4.0608    1.9594 H   0  0  0  0  0  0  0  0  0  0  0  0
    2.2754   -2.7425    3.0076 H   0  0  0  0  0  0  0  0  0  0  0  0
    0.9350   -1.1797    1.6554 H   0  0  0  0  0  0  0  0  0  0  0  0
    0.9838   -1.0081   -2.0236 H   0  0  0  0  0  0  0  0  0  0  0  0
    0.1485   -0.5211   -0.5326 H   0  0  0  0  0  0  0  0  0  0  0  0
    2.7094    0.5767   -1.6077 H   0  0  0  0  0  0  0  0  0  0  0  0
    2.1077    0.9855   -0.0853 H   0  0  0  0  0  0  0  0  0  0  0  0
    1.6232    2.3318   -2.3771 H   0  0  0  0  0  0  0  0  0  0  0  0
    0.2020    1.2651   -2.3451 H   0  0  0  0  0  0  0  0  0  0  0  0
   -0.2139    3.4678   -1.2436 H   0  0  0  0  0  0  0  0  0  0  0  0
    1.1315    3.1913   -0.0968 H   0  0  0  0  0  0  0  0  0  0  0  0
    0.5717    1.7408    2.0820 H   0  0  0  0  0  0  0  0  0  0  0  0
   -1.4798    0.4658    2.9926 H   0  0  0  0  0  0  0  0  0  0  0  0
   -3.9282   -0.2576    1.9913 H   0  0  0  0  0  0  0  0  0  0  0  0
   -5.3633   -0.1324   -0.0537 H   0  0  0  0  0  0  0  0  0  0  0  0
   -4.5431    1.0436   -2.0872 H   0  0  0  0  0  0  0  0  0  0  0  0
   -2.2829    2.1094   -2.0977 H   0  0  0  0  0  0  0  0  0  0  0  0
  1  2  1  0
  2  3  2  0
  3  4  1  0
  4  5  2  0
  5  6  1  0
  6  7  2  0
  7  8  1  0
  8  9  1  0
  9 10  1  0
 10 11  1  0
 11 12  1  0
 12 13  2  0
 13 14  1  0
 14 15  1  0
 15 16  2  0
 16 17  1  0
 17 18  2  0
 18 19  1  0
 19 20  2  0
  7  2  1  0
 20 12  1  0
 20 15  1  0
  3 21  1  0
  4 22  1  0
  5 23  1  0
  6 24  1  0
  8 25  1  0
  8 26  1  0
  9 27  1  0
  9 28  1  0
 10 29  1  0
 10 30  1  0
 11 31  1  0
 11 32  1  0
 13 33  1  0
 14 34  1  0
 16 35  1  0
 17 36  1  0
 18 37  1  0
 19 38  1  0
M  CHG  1   9   1
M  END
>  <UniqueID>  (153) 
152

>  <SMILES>  (153) 
Clc1ccccc1C[NH2+]CCc1c[nH]c2ccccc12

>  <Energy>  (153) 
71.60951703973282

>  <Genealogy>  (153) 
Clc1ccccc1C[NH2+]CCc1c[nH]c2ccccc12 (protonated)
Clc1ccccc1C[NH2+]CCc1c[nH]c2ccccc12 (3D coordinates assigned)
Clc1ccccc1C[NH2+]CCc1c[nH]c2ccccc12 (optimized conformer: 71.60951703973282 kcal/mol)

$$$$
untitled_line_153
     RDKit          3D

 38 40  0  0  0  0  0  0  0  0999 V2000
    3.6779    0.8848   -1.4543 F   0  0  0  0  0  0  0  0  0  0  0  0
    2.4518    1.3103   -1.0623 C   0  0  0  0  0  0  0  0  0  0  0  0
    1.3995    1.3518   -1.9810 C   0  0  0  0  0  0  0  0  0  0  0  0
    0.1327    1.7836   -1.5767 C   0  0  0  0  0  0  0  0  0  0  0  0
   -0.0913    2.1772   -0.2466 C   0  0  0  0  0  0  0  0  0  0  0  0
   -1.4690    2.6201    0.1924 C   0  0  0  0  0  0  0  0  0  0  0  0
   -2.4046    1.4849    0.2751 N   0  0  0  0  0  4  0  0  0  0  0  0
   -2.1486    0.6257    1.4545 C   0  0  0  0  0  0  0  0  0  0  0  0
   -2.2777   -0.8694    1.1235 C   0  0  0  0  0  0  0  0  0  0  0  0
   -1.1637   -1.3341    0.2283 C   0  0  0  0  0  0  0  0  0  0  0  0
   -1.2471   -1.5860   -1.1383 C   0  0  0  0  0  0  0  0  0  0  0  0
   -0.0331   -1.9192   -1.6325 N   0  0  0  0  0  0  0  0  0  0  0  0
    0.8166   -1.8747   -0.5920 C   0  0  0  0  0  0  0  0  0  0  0  0
    2.1892   -2.1175   -0.6121 C   0  0  0  0  0  0  0  0  0  0  0  0
    2.8980   -1.9849    0.5958 C   0  0  0  0  0  0  0  0  0  0  0  0
    2.2264   -1.6180    1.7830 C   0  0  0  0  0  0  0  0  0  0  0  0
    0.8401   -1.3803    1.7735 C   0  0  0  0  0  0  0  0  0  0  0  0
    0.1646   -1.5185    0.5607 C   0  0  0  0  0  0  0  0  0  0  0  0
    0.9721    2.1307    0.6713 C   0  0  0  0  0  0  0  0  0  0  0  0
    2.2373    1.6978    0.2631 C   0  0  0  0  0  0  0  0  0  0  0  0
    1.5630    1.0443   -3.0057 H   0  0  0  0  0  0  0  0  0  0  0  0
   -0.6747    1.8066   -2.2979 H   0  0  0  0  0  0  0  0  0  0  0  0
   -1.4247    3.1554    1.1680 H   0  0  0  0  0  0  0  0  0  0  0  0
   -1.8522    3.3561   -0.5492 H   0  0  0  0  0  0  0  0  0  0  0  0
   -2.3714    0.9457   -0.6206 H   0  0  0  0  0  0  0  0  0  0  0  0
   -3.3748    1.8712    0.3525 H   0  0  0  0  0  0  0  0  0  0  0  0
   -2.8830    0.8689    2.2550 H   0  0  0  0  0  0  0  0  0  0  0  0
   -1.1457    0.8060    1.8981 H   0  0  0  0  0  0  0  0  0  0  0  0
   -3.2607   -1.0642    0.6426 H   0  0  0  0  0  0  0  0  0  0  0  0
   -2.2440   -1.4547    2.0673 H   0  0  0  0  0  0  0  0  0  0  0  0
   -2.1436   -1.5121   -1.7399 H   0  0  0  0  0  0  0  0  0  0  0  0
    0.1966   -2.1463   -2.6255 H   0  0  0  0  0  0  0  0  0  0  0  0
    2.6963   -2.3892   -1.5287 H   0  0  0  0  0  0  0  0  0  0  0  0
    3.9655   -2.1608    0.6142 H   0  0  0  0  0  0  0  0  0  0  0  0
    2.7825   -1.5157    2.7057 H   0  0  0  0  0  0  0  0  0  0  0  0
    0.3204   -1.0962    2.6791 H   0  0  0  0  0  0  0  0  0  0  0  0
    0.8213    2.4230    1.7029 H   0  0  0  0  0  0  0  0  0  0  0  0
    3.0499    1.6577    0.9770 H   0  0  0  0  0  0  0  0  0  0  0  0
  1  2  1  0
  2  3  2  0
  3  4  1  0
  4  5  2  0
  5  6  1  0
  6  7  1  0
  7  8  1  0
  8  9  1  0
  9 10  1  0
 10 11  2  0
 11 12  1  0
 12 13  1  0
 13 14  2  0
 14 15  1  0
 15 16  2  0
 16 17  1  0
 17 18  2  0
  5 19  1  0
 19 20  2  0
 20  2  1  0
 18 10  1  0
 18 13  1  0
  3 21  1  0
  4 22  1  0
  6 23  1  0
  6 24  1  0
  7 25  1  0
  7 26  1  0
  8 27  1  0
  8 28  1  0
  9 29  1  0
  9 30  1  0
 11 31  1  0
 12 32  1  0
 14 33  1  0
 15 34  1  0
 16 35  1  0
 17 36  1  0
 19 37  1  0
 20 38  1  0
M  CHG  1   7   1
M  END
>  <UniqueID>  (154) 
153

>  <SMILES>  (154) 
Fc1ccc(C[NH2+]CCc2c[nH]c3ccccc23)cc1

>  <Energy>  (154) 
67.28889493114818

>  <Genealogy>  (154) 
Fc1ccc(C[NH2+]CCc2c[nH]c3ccccc23)cc1 (protonated)
Fc1ccc(C[NH2+]CCc2c[nH]c3ccccc23)cc1 (3D coordinates assigned)
Fc1ccc(C[NH2+]CCc2c[nH]c3ccccc23)cc1 (optimized conformer: 67.28889493114818 kcal/mol)

$$$$
untitled_line_154
     RDKit          3D

 40 42  0  0  0  0  0  0  0  0999 V2000
   -3.2008    1.2099   -0.2662 O   0  0  0  0  0  0  0  0  0  0  0  0
   -2.9651    0.9672    0.9353 N   0  0  0  0  0  4  0  0  0  0  0  0
   -4.0212    0.6677    1.7629 O   0  0  0  0  0  1  0  0  0  0  0  0
   -1.6683    1.2612    1.4845 C   0  0  0  0  0  0  0  0  0  0  0  0
   -0.9651    2.3790    0.9998 C   0  0  0  0  0  0  0  0  0  0  0  0
    0.2892    2.7108    1.5110 C   0  0  0  0  0  0  0  0  0  0  0  0
    0.8635    1.9304    2.5112 C   0  0  0  0  0  0  0  0  0  0  0  0
    0.1909    0.8087    2.9963 C   0  0  0  0  0  0  0  0  0  0  0  0
   -1.0735    0.4510    2.4914 C   0  0  0  0  0  0  0  0  0  0  0  0
   -1.7027   -0.8444    2.9749 C   0  0  0  0  0  0  0  0  0  0  0  0
   -1.6257   -1.9013    1.9494 N   0  0  0  0  0  4  0  0  0  0  0  0
   -0.2845   -2.5283    1.8877 C   0  0  0  0  0  0  0  0  0  0  0  0
    0.1826   -2.7649    0.4435 C   0  0  0  0  0  0  0  0  0  0  0  0
    0.5389   -1.4706   -0.2324 C   0  0  0  0  0  0  0  0  0  0  0  0
    1.6397   -0.6685    0.0559 C   0  0  0  0  0  0  0  0  0  0  0  0
    1.6181    0.4535   -0.6979 N   0  0  0  0  0  0  0  0  0  0  0  0
    0.5121    0.3698   -1.4567 C   0  0  0  0  0  0  0  0  0  0  0  0
    0.0528    1.3048   -2.3828 C   0  0  0  0  0  0  0  0  0  0  0  0
   -1.1441    1.0216   -3.0649 C   0  0  0  0  0  0  0  0  0  0  0  0
   -1.8488   -0.1748   -2.8067 C   0  0  0  0  0  0  0  0  0  0  0  0
   -1.3665   -1.0965   -1.8598 C   0  0  0  0  0  0  0  0  0  0  0  0
   -0.1747   -0.7902   -1.2011 C   0  0  0  0  0  0  0  0  0  0  0  0
   -1.3961    3.0031    0.2271 H   0  0  0  0  0  0  0  0  0  0  0  0
    0.8175    3.5748    1.1292 H   0  0  0  0  0  0  0  0  0  0  0  0
    1.8389    2.1876    2.9035 H   0  0  0  0  0  0  0  0  0  0  0  0
    0.6700    0.2057    3.7576 H   0  0  0  0  0  0  0  0  0  0  0  0
   -1.2218   -1.1916    3.9179 H   0  0  0  0  0  0  0  0  0  0  0  0
   -2.7588   -0.6705    3.2599 H   0  0  0  0  0  0  0  0  0  0  0  0
   -2.3245   -2.6418    2.1942 H   0  0  0  0  0  0  0  0  0  0  0  0
   -1.9187   -1.5135    1.0236 H   0  0  0  0  0  0  0  0  0  0  0  0
    0.4888   -1.9263    2.4144 H   0  0  0  0  0  0  0  0  0  0  0  0
   -0.3127   -3.5116    2.4091 H   0  0  0  0  0  0  0  0  0  0  0  0
    1.0865   -3.4110    0.4597 H   0  0  0  0  0  0  0  0  0  0  0  0
   -0.6017   -3.3070   -0.1256 H   0  0  0  0  0  0  0  0  0  0  0  0
    2.4036   -0.8867    0.7907 H   0  0  0  0  0  0  0  0  0  0  0  0
    2.3128    1.2329   -0.6784 H   0  0  0  0  0  0  0  0  0  0  0  0
    0.5975    2.2211   -2.5700 H   0  0  0  0  0  0  0  0  0  0  0  0
   -1.5285    1.7263   -3.7906 H   0  0  0  0  0  0  0  0  0  0  0  0
   -2.7703   -0.3806   -3.3354 H   0  0  0  0  0  0  0  0  0  0  0  0
   -1.9094   -2.0090   -1.6530 H   0  0  0  0  0  0  0  0  0  0  0  0
  1  2  2  0
  2  3  1  0
  2  4  1  0
  4  5  2  0
  5  6  1  0
  6  7  2  0
  7  8  1  0
  8  9  2  0
  9 10  1  0
 10 11  1  0
 11 12  1  0
 12 13  1  0
 13 14  1  0
 14 15  2  0
 15 16  1  0
 16 17  1  0
 17 18  2  0
 18 19  1  0
 19 20  2  0
 20 21  1  0
 21 22  2  0
  9  4  1  0
 22 14  1  0
 22 17  1  0
  5 23  1  0
  6 24  1  0
  7 25  1  0
  8 26  1  0
 10 27  1  0
 10 28  1  0
 11 29  1  0
 11 30  1  0
 12 31  1  0
 12 32  1  0
 13 33  1  0
 13 34  1  0
 15 35  1  0
 16 36  1  0
 18 37  1  0
 19 38  1  0
 20 39  1  0
 21 40  1  0
M  CHG  3   2   1   3  -1  11   1
M  END
>  <UniqueID>  (155) 
154

>  <SMILES>  (155) 
O=[N+]([O-])c1ccccc1C[NH2+]CCc1c[nH]c2ccccc12

>  <Energy>  (155) 
76.53894664696497

>  <Genealogy>  (155) 
O=[N+]([O-])c1ccccc1C[NH2+]CCc1c[nH]c2ccccc12 (protonated)
O=[N+]([O-])c1ccccc1C[NH2+]CCc1c[nH]c2ccccc12 (3D coordinates assigned)
O=[N+]([O-])c1ccccc1C[NH2+]CCc1c[nH]c2ccccc12 (optimized conformer: 76.53894664696497 kcal/mol)

$$$$
untitled_line_155
     RDKit          3D

 46 48  0  0  0  0  0  0  0  0999 V2000
    1.3395   -3.3481    2.3536 C   0  0  0  0  0  0  0  0  0  0  0  0
    1.7989   -2.1844    1.6738 O   0  0  0  0  0  0  0  0  0  0  0  0
    1.2121   -0.9150    1.7861 C   0  0  0  0  0  0  0  0  0  0  0  0
    1.7939    0.1460    1.0852 C   0  0  0  0  0  0  0  0  0  0  0  0
    1.2516    1.4377    1.1582 C   0  0  0  0  0  0  0  0  0  0  0  0
    1.8671    2.5752    0.3739 C   0  0  0  0  0  0  0  0  0  0  0  0
    1.0159    2.9779   -0.7593 N   0  0  0  0  0  4  0  0  0  0  0  0
    1.0282    1.9840   -1.8578 C   0  0  0  0  0  0  0  0  0  0  0  0
   -0.3671    1.7734   -2.4658 C   0  0  0  0  0  0  0  0  0  0  0  0
   -1.2901    1.0772   -1.5052 C   0  0  0  0  0  0  0  0  0  0  0  0
   -2.3145    1.6624   -0.7660 C   0  0  0  0  0  0  0  0  0  0  0  0
   -2.9065    0.7442    0.0312 N   0  0  0  0  0  0  0  0  0  0  0  0
   -2.2628   -0.4139   -0.1946 C   0  0  0  0  0  0  0  0  0  0  0  0
   -2.5088   -1.6473    0.4062 C   0  0  0  0  0  0  0  0  0  0  0  0
   -1.6957   -2.7331    0.0350 C   0  0  0  0  0  0  0  0  0  0  0  0
   -0.6652   -2.5634   -0.9159 C   0  0  0  0  0  0  0  0  0  0  0  0
   -0.4422   -1.3076   -1.5090 C   0  0  0  0  0  0  0  0  0  0  0  0
   -1.2660   -0.2502   -1.1224 C   0  0  0  0  0  0  0  0  0  0  0  0
    0.1126    1.6611    1.9454 C   0  0  0  0  0  0  0  0  0  0  0  0
   -0.4885    0.6124    2.6482 C   0  0  0  0  0  0  0  0  0  0  0  0
   -1.6366    0.8935    3.4038 O   0  0  0  0  0  0  0  0  0  0  0  0
   -2.3637   -0.0732    4.1545 C   0  0  0  0  0  0  0  0  0  0  0  0
    0.0673   -0.6787    2.5703 C   0  0  0  0  0  0  0  0  0  0  0  0
    0.2998   -3.5860    2.0473 H   0  0  0  0  0  0  0  0  0  0  0  0
    1.9917   -4.2046    2.0868 H   0  0  0  0  0  0  0  0  0  0  0  0
    1.3875   -3.1922    3.4520 H   0  0  0  0  0  0  0  0  0  0  0  0
    2.6703   -0.0417    0.4769 H   0  0  0  0  0  0  0  0  0  0  0  0
    1.9970    3.4422    1.0593 H   0  0  0  0  0  0  0  0  0  0  0  0
    2.8859    2.3074    0.0126 H   0  0  0  0  0  0  0  0  0  0  0  0
    0.0481    3.1690   -0.4113 H   0  0  0  0  0  0  0  0  0  0  0  0
    1.3817    3.8859   -1.1308 H   0  0  0  0  0  0  0  0  0  0  0  0
    1.4258    0.9987   -1.5319 H   0  0  0  0  0  0  0  0  0  0  0  0
    1.7097    2.3346   -2.6652 H   0  0  0  0  0  0  0  0  0  0  0  0
   -0.2739    1.1533   -3.3830 H   0  0  0  0  0  0  0  0  0  0  0  0
   -0.7973    2.7534   -2.7659 H   0  0  0  0  0  0  0  0  0  0  0  0
   -2.6016    2.7051   -0.8013 H   0  0  0  0  0  0  0  0  0  0  0  0
   -3.6948    0.9085    0.6960 H   0  0  0  0  0  0  0  0  0  0  0  0
   -3.2974   -1.7667    1.1375 H   0  0  0  0  0  0  0  0  0  0  0  0
   -1.8583   -3.7039    0.4844 H   0  0  0  0  0  0  0  0  0  0  0  0
   -0.0420   -3.4049   -1.1890 H   0  0  0  0  0  0  0  0  0  0  0  0
    0.3448   -1.1715   -2.2390 H   0  0  0  0  0  0  0  0  0  0  0  0
   -0.3178    2.6533    2.0054 H   0  0  0  0  0  0  0  0  0  0  0  0
   -2.7475   -0.8692    3.4827 H   0  0  0  0  0  0  0  0  0  0  0  0
   -3.2258    0.4228    4.6453 H   0  0  0  0  0  0  0  0  0  0  0  0
   -1.7137   -0.5152    4.9388 H   0  0  0  0  0  0  0  0  0  0  0  0
   -0.3922   -1.4943    3.1083 H   0  0  0  0  0  0  0  0  0  0  0  0
  1  2  1  0
  2  3  1  0
  3  4  2  0
  4  5  1  0
  5  6  1  0
  6  7  1  0
  7  8  1  0
  8  9  1  0
  9 10  1  0
 10 11  2  0
 11 12  1  0
 12 13  1  0
 13 14  2  0
 14 15  1  0
 15 16  2  0
 16 17  1  0
 17 18  2  0
  5 19  2  0
 19 20  1  0
 20 21  1  0
 21 22  1  0
 20 23  2  0
 23  3  1  0
 18 10  1  0
 18 13  1  0
  1 24  1  0
  1 25  1  0
  1 26  1  0
  4 27  1  0
  6 28  1  0
  6 29  1  0
  7 30  1  0
  7 31  1  0
  8 32  1  0
  8 33  1  0
  9 34  1  0
  9 35  1  0
 11 36  1  0
 12 37  1  0
 14 38  1  0
 15 39  1  0
 16 40  1  0
 17 41  1  0
 19 42  1  0
 22 43  1  0
 22 44  1  0
 22 45  1  0
 23 46  1  0
M  CHG  1   7   1
M  END
>  <UniqueID>  (156) 
155

>  <SMILES>  (156) 
COc1cc(C[NH2+]CCc2c[nH]c3ccccc23)cc(OC)c1

>  <Energy>  (156) 
71.54667288603471

>  <Genealogy>  (156) 
COc1cc(C[NH2+]CCc2c[nH]c3ccccc23)cc(OC)c1 (protonated)
COc1cc(C[NH2+]CCc2c[nH]c3ccccc23)cc(OC)c1 (3D coordinates assigned)
COc1cc(C[NH2+]CCc2c[nH]c3ccccc23)cc(OC)c1 (optimized conformer: 71.54667288603471 kcal/mol)

$$$$
untitled_line_156
     RDKit          3D

 38 39  0  0  0  0  0  0  0  0999 V2000
    4.1539    0.4729    1.4645 O   0  0  0  0  0  0  0  0  0  0  0  0
    4.4997    0.2138    0.1256 C   0  0  1  0  0  0  0  0  0  0  0  0
    3.2324    0.0107   -0.7357 C   0  0  0  0  0  0  0  0  0  0  0  0
    2.3985   -1.1879   -0.2423 C   0  0  0  0  0  0  0  0  0  0  0  0
    1.1955   -1.4064   -1.0709 N   0  0  0  0  0  4  0  0  0  0  0  0
    0.0595   -0.5481   -0.6792 C   0  0  0  0  0  0  0  0  0  0  0  0
   -0.7374   -1.1436    0.4932 C   0  0  0  0  0  0  0  0  0  0  0  0
   -1.8759   -0.2417    0.8653 C   0  0  0  0  0  0  0  0  0  0  0  0
   -1.8556    0.7644    1.8266 C   0  0  0  0  0  0  0  0  0  0  0  0
   -3.0343    1.4278    1.8401 N   0  0  0  0  0  0  0  0  0  0  0  0
   -3.7925    0.8582    0.8869 C   0  0  0  0  0  0  0  0  0  0  0  0
   -5.0871    1.2146    0.5115 C   0  0  0  0  0  0  0  0  0  0  0  0
   -5.6904    0.4929   -0.5349 C   0  0  0  0  0  0  0  0  0  0  0  0
   -4.9927   -0.5539   -1.1778 C   0  0  0  0  0  0  0  0  0  0  0  0
   -3.6861   -0.8901   -0.7792 C   0  0  0  0  0  0  0  0  0  0  0  0
   -3.1171   -0.1608    0.2652 C   0  0  0  0  0  0  0  0  0  0  0  0
    5.4059    1.3381   -0.4164 C   0  0  0  0  0  0  0  0  0  0  0  0
    4.6879    2.5121   -0.5654 F   0  0  0  0  0  0  0  0  0  0  0  0
    6.4413    1.5621    0.4735 F   0  0  0  0  0  0  0  0  0  0  0  0
    6.1176    0.8899   -1.9912 Cl  0  0  0  0  0  0  0  0  0  0  0  0
    3.6126    1.3054    1.4799 H   0  0  0  0  0  0  0  0  0  0  0  0
    5.0888   -0.7294    0.1085 H   0  0  0  0  0  0  0  0  0  0  0  0
    2.6191    0.9357   -0.7149 H   0  0  0  0  0  0  0  0  0  0  0  0
    3.5290   -0.1764   -1.7900 H   0  0  0  0  0  0  0  0  0  0  0  0
    3.0378   -2.0978   -0.2919 H   0  0  0  0  0  0  0  0  0  0  0  0
    2.1248   -1.0463    0.8252 H   0  0  0  0  0  0  0  0  0  0  0  0
    0.9149   -2.4130   -1.0026 H   0  0  0  0  0  0  0  0  0  0  0  0
    1.4240   -1.2283   -2.0771 H   0  0  0  0  0  0  0  0  0  0  0  0
   -0.6281   -0.4439   -1.5489 H   0  0  0  0  0  0  0  0  0  0  0  0
    0.4028    0.4763   -0.4168 H   0  0  0  0  0  0  0  0  0  0  0  0
   -1.1381   -2.1407    0.2106 H   0  0  0  0  0  0  0  0  0  0  0  0
   -0.0828   -1.2801    1.3789 H   0  0  0  0  0  0  0  0  0  0  0  0
   -1.0198    1.0046    2.4709 H   0  0  0  0  0  0  0  0  0  0  0  0
   -3.2929    2.2300    2.4566 H   0  0  0  0  0  0  0  0  0  0  0  0
   -5.6111    2.0225    1.0056 H   0  0  0  0  0  0  0  0  0  0  0  0
   -6.6944    0.7438   -0.8514 H   0  0  0  0  0  0  0  0  0  0  0  0
   -5.4656   -1.0998   -1.9838 H   0  0  0  0  0  0  0  0  0  0  0  0
   -3.1442   -1.6878   -1.2704 H   0  0  0  0  0  0  0  0  0  0  0  0
  1  2  1  0
  2  3  1  0
  3  4  1  0
  4  5  1  0
  5  6  1  0
  6  7  1  0
  7  8  1  0
  8  9  2  0
  9 10  1  0
 10 11  1  0
 11 12  2  0
 12 13  1  0
 13 14  2  0
 14 15  1  0
 15 16  2  0
  2 17  1  0
 17 18  1  0
 17 19  1  0
 17 20  1  0
 16  8  1  0
 16 11  1  0
  1 21  1  0
  2 22  1  1
  3 23  1  0
  3 24  1  0
  4 25  1  0
  4 26  1  0
  5 27  1  0
  5 28  1  0
  6 29  1  0
  6 30  1  0
  7 31  1  0
  7 32  1  0
  9 33  1  0
 10 34  1  0
 12 35  1  0
 13 36  1  0
 14 37  1  0
 15 38  1  0
M  CHG  1   5   1
M  END
>  <UniqueID>  (157) 
156

>  <SMILES>  (157) 
O[C@@H](CC[NH2+]CCc1c[nH]c2ccccc12)C(F)(F)Cl

>  <Energy>  (157) 
66.3488602835611

>  <Genealogy>  (157) 
OC(CC[NH2+]CCc1c[nH]c2ccccc12)C(F)(F)Cl (protonated)
O[C@@H](CC[NH2+]CCc1c[nH]c2ccccc12)C(F)(F)Cl (chirality)
O[C@@H](CC[NH2+]CCc1c[nH]c2ccccc12)C(F)(F)Cl (3D coordinates assigned)
O[C@@H](CC[NH2+]CCc1c[nH]c2ccccc12)C(F)(F)Cl (optimized conformer: 66.3488602835611 kcal/mol)

$$$$
untitled_line_157
     RDKit          3D

 32 33  0  0  0  0  0  0  0  0999 V2000
    3.0943   -1.4803    0.2088 O   0  0  0  0  0  0  0  0  0  0  0  0
    3.2280   -0.2477    0.4416 C   0  0  0  0  0  0  0  0  0  0  0  0
    2.1447    0.6570    0.1775 N   0  0  0  0  0  0  0  0  0  0  0  0
    0.8424    0.2032   -0.3056 C   0  0  0  0  0  0  0  0  0  0  0  0
    0.0503   -0.4524    0.8277 C   0  0  0  0  0  0  0  0  0  0  0  0
   -1.2977   -0.8929    0.3416 C   0  0  0  0  0  0  0  0  0  0  0  0
   -1.6285   -2.1486   -0.1590 C   0  0  0  0  0  0  0  0  0  0  0  0
   -2.9162   -2.1671   -0.5730 N   0  0  0  0  0  0  0  0  0  0  0  0
   -3.3962   -0.9310   -0.3503 C   0  0  0  0  0  0  0  0  0  0  0  0
   -4.6765   -0.4576   -0.6343 C   0  0  0  0  0  0  0  0  0  0  0  0
   -4.9610    0.8878   -0.3366 C   0  0  0  0  0  0  0  0  0  0  0  0
   -3.9698    1.7212    0.2281 C   0  0  0  0  0  0  0  0  0  0  0  0
   -2.6854    1.2166    0.5021 C   0  0  0  0  0  0  0  0  0  0  0  0
   -2.4354   -0.1227    0.2016 C   0  0  0  0  0  0  0  0  0  0  0  0
    4.5487    0.2718    0.9413 C   0  0  0  0  0  0  0  0  0  0  0  0
    5.2115   -0.7311    1.6293 F   0  0  0  0  0  0  0  0  0  0  0  0
    4.3348    1.3254    1.8137 F   0  0  0  0  0  0  0  0  0  0  0  0
    5.4255    0.7455   -0.2195 C   0  0  0  0  0  0  0  0  0  0  0  0
    4.8104    1.7805   -0.9021 F   0  0  0  0  0  0  0  0  0  0  0  0
    5.6717   -0.2978   -1.0952 F   0  0  0  0  0  0  0  0  0  0  0  0
    2.3030    1.6849    0.2784 H   0  0  0  0  0  0  0  0  0  0  0  0
    0.2740    1.0790   -0.6893 H   0  0  0  0  0  0  0  0  0  0  0  0
    0.9806   -0.5100   -1.1477 H   0  0  0  0  0  0  0  0  0  0  0  0
    0.6027   -1.3335    1.2181 H   0  0  0  0  0  0  0  0  0  0  0  0
   -0.0746    0.2694    1.6633 H   0  0  0  0  0  0  0  0  0  0  0  0
   -0.9600   -2.9970   -0.2268 H   0  0  0  0  0  0  0  0  0  0  0  0
   -3.4258   -2.9755   -0.9941 H   0  0  0  0  0  0  0  0  0  0  0  0
   -5.4274   -1.1020   -1.0728 H   0  0  0  0  0  0  0  0  0  0  0  0
   -5.9449    1.2876   -0.5447 H   0  0  0  0  0  0  0  0  0  0  0  0
   -4.1991    2.7553    0.4498 H   0  0  0  0  0  0  0  0  0  0  0  0
   -1.9201    1.8505    0.9305 H   0  0  0  0  0  0  0  0  0  0  0  0
    6.3959    1.1114    0.1778 H   0  0  0  0  0  0  0  0  0  0  0  0
  1  2  2  0
  2  3  1  0
  3  4  1  0
  4  5  1  0
  5  6  1  0
  6  7  2  0
  7  8  1  0
  8  9  1  0
  9 10  2  0
 10 11  1  0
 11 12  2  0
 12 13  1  0
 13 14  2  0
  2 15  1  0
 15 16  1  0
 15 17  1  0
 15 18  1  0
 18 19  1  0
 18 20  1  0
 14  6  1  0
 14  9  1  0
  3 21  1  0
  4 22  1  0
  4 23  1  0
  5 24  1  0
  5 25  1  0
  7 26  1  0
  8 27  1  0
 10 28  1  0
 11 29  1  0
 12 30  1  0
 13 31  1  0
 18 32  1  0
M  END
>  <UniqueID>  (158) 
157

>  <SMILES>  (158) 
O=C(NCCc1c[nH]c2ccccc12)C(F)(F)C(F)F

>  <Energy>  (158) 
56.68414272639252

>  <Genealogy>  (158) 
O=C(NCCc1c[nH]c2ccccc12)C(F)(F)C(F)F (3D coordinates assigned)
O=C(NCCc1c[nH]c2ccccc12)C(F)(F)C(F)F (optimized conformer: 56.68414272639252 kcal/mol)

$$$$
untitled_line_158
     RDKit          3D

 64 67  0  0  0  0  0  0  0  0999 V2000
    2.6817   -1.0843    1.7460 O   0  0  0  0  0  0  0  0  0  0  0  0
    2.8427   -1.0734    0.4946 C   0  0  0  0  0  0  0  0  0  0  0  0
    3.9783   -1.7164   -0.0932 N   0  0  0  0  0  0  0  0  0  0  0  0
    5.0786   -2.2647    0.6999 C   0  0  0  0  0  0  0  0  0  0  0  0
    5.8903   -1.1509    1.3729 C   0  0  0  0  0  0  0  0  0  0  0  0
    6.4166   -0.1699    0.3661 C   0  0  0  0  0  0  0  0  0  0  0  0
    5.8213    1.0317   -0.0078 C   0  0  0  0  0  0  0  0  0  0  0  0
    6.5273    1.6188   -1.0009 N   0  0  0  0  0  0  0  0  0  0  0  0
    7.5547    0.7927   -1.2651 C   0  0  0  0  0  0  0  0  0  0  0  0
    8.5465    0.9597   -2.2304 C   0  0  0  0  0  0  0  0  0  0  0  0
    9.5209   -0.0478   -2.3530 C   0  0  0  0  0  0  0  0  0  0  0  0
    9.4803   -1.1883   -1.5202 C   0  0  0  0  0  0  0  0  0  0  0  0
    8.4658   -1.3313   -0.5562 C   0  0  0  0  0  0  0  0  0  0  0  0
    7.5177   -0.3132   -0.4546 C   0  0  0  0  0  0  0  0  0  0  0  0
    1.9158   -0.4343   -0.3354 O   0  0  0  0  0  0  0  0  0  0  0  0
    0.8300    0.3468    0.1589 C   0  0  0  0  0  0  0  0  0  0  0  0
    1.3426    1.6888    0.6984 C   0  0  0  0  0  0  0  0  0  0  0  0
    0.2158    2.6980    0.9760 C   0  0  0  0  0  0  0  0  0  0  0  0
   -0.6238    2.3515    2.2152 C   0  0  0  0  0  0  0  0  0  0  0  0
   -1.4716    1.2295    1.9768 O   0  0  0  0  0  0  0  0  0  0  0  0
   -2.6203    1.2845    1.1803 C   0  0  0  0  0  0  0  0  0  0  0  0
   -3.0131    2.3820    0.6969 O   0  0  0  0  0  0  0  0  0  0  0  0
   -3.3434    0.0776    0.9147 N   0  0  0  0  0  0  0  0  0  0  0  0
   -4.5400    0.0423    0.0772 C   0  0  0  0  0  0  0  0  0  0  0  0
   -5.7459    0.5898    0.8437 C   0  0  0  0  0  0  0  0  0  0  0  0
   -6.9785    0.5411   -0.0081 C   0  0  0  0  0  0  0  0  0  0  0  0
   -7.4856    1.5728   -0.7921 C   0  0  0  0  0  0  0  0  0  0  0  0
   -8.5725    1.1526   -1.4791 N   0  0  0  0  0  0  0  0  0  0  0  0
   -8.7476   -0.1378   -1.1453 C   0  0  0  0  0  0  0  0  0  0  0  0
   -9.7316   -1.0067   -1.6152 C   0  0  0  0  0  0  0  0  0  0  0  0
   -9.7170   -2.3327   -1.1453 C   0  0  0  0  0  0  0  0  0  0  0  0
   -8.7288   -2.7565   -0.2292 C   0  0  0  0  0  0  0  0  0  0  0  0
   -7.7469   -1.8580    0.2267 C   0  0  0  0  0  0  0  0  0  0  0  0
   -7.7903   -0.5489   -0.2534 C   0  0  0  0  0  0  0  0  0  0  0  0
    4.0292   -1.7839   -1.1346 H   0  0  0  0  0  0  0  0  0  0  0  0
    5.7489   -2.8557    0.0381 H   0  0  0  0  0  0  0  0  0  0  0  0
    4.6756   -2.9547    1.4722 H   0  0  0  0  0  0  0  0  0  0  0  0
    5.2616   -0.6178    2.1172 H   0  0  0  0  0  0  0  0  0  0  0  0
    6.7418   -1.6032    1.9248 H   0  0  0  0  0  0  0  0  0  0  0  0
    4.9126    1.4435    0.4124 H   0  0  0  0  0  0  0  0  0  0  0  0
    6.3054    2.5221   -1.4755 H   0  0  0  0  0  0  0  0  0  0  0  0
    8.5657    1.8341   -2.8680 H   0  0  0  0  0  0  0  0  0  0  0  0
   10.3048    0.0504   -3.0924 H   0  0  0  0  0  0  0  0  0  0  0  0
   10.2334   -1.9581   -1.6255 H   0  0  0  0  0  0  0  0  0  0  0  0
    8.4260   -2.2043    0.0822 H   0  0  0  0  0  0  0  0  0  0  0  0
    0.2931   -0.2209    0.9477 H   0  0  0  0  0  0  0  0  0  0  0  0
    0.1251    0.5290   -0.6798 H   0  0  0  0  0  0  0  0  0  0  0  0
    1.9404    1.5256    1.6209 H   0  0  0  0  0  0  0  0  0  0  0  0
    2.0216    2.1330   -0.0621 H   0  0  0  0  0  0  0  0  0  0  0  0
    0.6850    3.6903    1.1524 H   0  0  0  0  0  0  0  0  0  0  0  0
   -0.4346    2.8036    0.0814 H   0  0  0  0  0  0  0  0  0  0  0  0
   -1.2402    3.2296    2.5077 H   0  0  0  0  0  0  0  0  0  0  0  0
    0.0476    2.1201    3.0690 H   0  0  0  0  0  0  0  0  0  0  0  0
   -2.9575   -0.8232    1.2766 H   0  0  0  0  0  0  0  0  0  0  0  0
   -4.7423   -1.0106   -0.2188 H   0  0  0  0  0  0  0  0  0  0  0  0
   -4.3676    0.6310   -0.8506 H   0  0  0  0  0  0  0  0  0  0  0  0
   -5.5562    1.6403    1.1512 H   0  0  0  0  0  0  0  0  0  0  0  0
   -5.9087   -0.0112    1.7642 H   0  0  0  0  0  0  0  0  0  0  0  0
   -7.0755    2.5718   -0.8627 H   0  0  0  0  0  0  0  0  0  0  0  0
   -9.1478    1.7163   -2.1435 H   0  0  0  0  0  0  0  0  0  0  0  0
  -10.4811   -0.6744   -2.3215 H   0  0  0  0  0  0  0  0  0  0  0  0
  -10.4661   -3.0333   -1.4907 H   0  0  0  0  0  0  0  0  0  0  0  0
   -8.7256   -3.7797    0.1229 H   0  0  0  0  0  0  0  0  0  0  0  0
   -6.9844   -2.1770    0.9253 H   0  0  0  0  0  0  0  0  0  0  0  0
  1  2  2  0
  2  3  1  0
  3  4  1  0
  4  5  1  0
  5  6  1  0
  6  7  2  0
  7  8  1  0
  8  9  1  0
  9 10  2  0
 10 11  1  0
 11 12  2  0
 12 13  1  0
 13 14  2  0
  2 15  1  0
 15 16  1  0
 16 17  1  0
 17 18  1  0
 18 19  1  0
 19 20  1  0
 20 21  1  0
 21 22  2  0
 21 23  1  0
 23 24  1  0
 24 25  1  0
 25 26  1  0
 26 27  2  0
 27 28  1  0
 28 29  1  0
 29 30  2  0
 30 31  1  0
 31 32  2  0
 32 33  1  0
 33 34  2  0
 14  6  1  0
 34 26  1  0
 14  9  1  0
 34 29  1  0
  3 35  1  0
  4 36  1  0
  4 37  1  0
  5 38  1  0
  5 39  1  0
  7 40  1  0
  8 41  1  0
 10 42  1  0
 11 43  1  0
 12 44  1  0
 13 45  1  0
 16 46  1  0
 16 47  1  0
 17 48  1  0
 17 49  1  0
 18 50  1  0
 18 51  1  0
 19 52  1  0
 19 53  1  0
 23 54  1  0
 24 55  1  0
 24 56  1  0
 25 57  1  0
 25 58  1  0
 27 59  1  0
 28 60  1  0
 30 61  1  0
 31 62  1  0
 32 63  1  0
 33 64  1  0
M  END
>  <UniqueID>  (159) 
158

>  <SMILES>  (159) 
O=C(NCCc1c[nH]c2ccccc12)OCCCCOC(=O)NCCc1c[nH]c2ccccc12

>  <Energy>  (159) 
114.13662877694524

>  <Genealogy>  (159) 
O=C(NCCc1c[nH]c2ccccc12)OCCCCOC(=O)NCCc1c[nH]c2ccccc12 (3D coordinates assigned)
O=C(NCCc1c[nH]c2ccccc12)OCCCCOC(=O)NCCc1c[nH]c2ccccc12 (optimized conformer: 114.13662877694524 kcal/mol)

$$$$
untitled_line_159
     RDKit          3D

 43 45  0  0  0  0  0  0  0  0999 V2000
   -1.2788    0.4049   -4.7570 S   0  0  0  0  0  0  0  0  0  0  0  0
   -0.6399    0.9553   -3.5779 C   0  0  0  0  0  0  0  0  0  0  0  0
   -1.3976    1.8067   -2.6773 N   0  0  0  0  0  4  0  0  0  0  0  0
   -2.4543    1.0489   -1.9767 C   0  0  0  0  0  0  0  0  0  0  0  0
   -2.9465    1.7756   -0.7142 C   0  0  0  0  0  0  0  0  0  0  0  0
   -1.9154    1.7459    0.3786 C   0  0  0  0  0  0  0  0  0  0  0  0
   -1.0667    2.7866    0.7454 C   0  0  0  0  0  0  0  0  0  0  0  0
   -0.1812    2.3683    1.6782 N   0  0  0  0  0  0  0  0  0  0  0  0
   -0.4574    1.0713    1.8977 C   0  0  0  0  0  0  0  0  0  0  0  0
    0.2246    0.1938    2.7395 C   0  0  0  0  0  0  0  0  0  0  0  0
   -0.2049   -1.1451    2.7808 C   0  0  0  0  0  0  0  0  0  0  0  0
   -1.2928   -1.5726    1.9879 C   0  0  0  0  0  0  0  0  0  0  0  0
   -1.9604   -0.6655    1.1452 C   0  0  0  0  0  0  0  0  0  0  0  0
   -1.5122    0.6556    1.1259 C   0  0  0  0  0  0  0  0  0  0  0  0
    0.7956    0.8051   -3.4035 N   0  0  0  0  0  4  0  0  0  0  0  0
    1.1398   -0.5076   -2.8165 C   0  0  0  0  0  0  0  0  0  0  0  0
    2.6490   -0.7443   -2.8318 C   0  0  0  0  0  0  0  0  0  0  0  0
    2.9194   -1.6575   -1.6518 C   0  0  0  0  0  0  0  0  0  0  0  0
    1.8944   -1.2714   -0.5974 C   0  0  0  0  0  0  0  0  0  0  0  0
    0.7257   -0.6300   -1.3410 C   0  0  0  0  0  0  0  0  0  0  0  0
   -1.8318    2.5918   -3.2180 H   0  0  0  0  0  0  0  0  0  0  0  0
   -0.7479    2.2344   -1.9807 H   0  0  0  0  0  0  0  0  0  0  0  0
   -3.3235    0.9141   -2.6587 H   0  0  0  0  0  0  0  0  0  0  0  0
   -2.1011    0.0326   -1.6987 H   0  0  0  0  0  0  0  0  0  0  0  0
   -3.8680    1.2763   -0.3451 H   0  0  0  0  0  0  0  0  0  0  0  0
   -3.2098    2.8265   -0.9625 H   0  0  0  0  0  0  0  0  0  0  0  0
   -1.0770    3.7852    0.3284 H   0  0  0  0  0  0  0  0  0  0  0  0
    0.5812    2.9335    2.1136 H   0  0  0  0  0  0  0  0  0  0  0  0
    1.0645    0.5280    3.3346 H   0  0  0  0  0  0  0  0  0  0  0  0
    0.3051   -1.8533    3.4207 H   0  0  0  0  0  0  0  0  0  0  0  0
   -1.6113   -2.6061    2.0242 H   0  0  0  0  0  0  0  0  0  0  0  0
   -2.7875   -0.9892    0.5272 H   0  0  0  0  0  0  0  0  0  0  0  0
    1.2738    0.9081   -4.3309 H   0  0  0  0  0  0  0  0  0  0  0  0
    1.1700    1.5707   -2.7960 H   0  0  0  0  0  0  0  0  0  0  0  0
    0.6605   -1.3295   -3.3985 H   0  0  0  0  0  0  0  0  0  0  0  0
    2.9778   -1.2099   -3.7862 H   0  0  0  0  0  0  0  0  0  0  0  0
    3.1975    0.2128   -2.6834 H   0  0  0  0  0  0  0  0  0  0  0  0
    2.7610   -2.7156   -1.9572 H   0  0  0  0  0  0  0  0  0  0  0  0
    3.9579   -1.5357   -1.2746 H   0  0  0  0  0  0  0  0  0  0  0  0
    1.5641   -2.1626   -0.0203 H   0  0  0  0  0  0  0  0  0  0  0  0
    2.3416   -0.5348    0.1065 H   0  0  0  0  0  0  0  0  0  0  0  0
    0.5078    0.3630   -0.8945 H   0  0  0  0  0  0  0  0  0  0  0  0
   -0.1781   -1.2700   -1.2513 H   0  0  0  0  0  0  0  0  0  0  0  0
  1  2  2  0
  2  3  1  0
  3  4  1  0
  4  5  1  0
  5  6  1  0
  6  7  2  0
  7  8  1  0
  8  9  1  0
  9 10  2  0
 10 11  1  0
 11 12  2  0
 12 13  1  0
 13 14  2  0
  2 15  1  0
 15 16  1  0
 16 17  1  0
 17 18  1  0
 18 19  1  0
 19 20  1  0
 14  6  1  0
 20 16  1  0
 14  9  1  0
  3 21  1  0
  3 22  1  0
  4 23  1  0
  4 24  1  0
  5 25  1  0
  5 26  1  0
  7 27  1  0
  8 28  1  0
 10 29  1  0
 11 30  1  0
 12 31  1  0
 13 32  1  0
 15 33  1  0
 15 34  1  0
 16 35  1  0
 17 36  1  0
 17 37  1  0
 18 38  1  0
 18 39  1  0
 19 40  1  0
 19 41  1  0
 20 42  1  0
 20 43  1  0
M  CHG  2   3   1  15   1
M  END
>  <UniqueID>  (160) 
159

>  <SMILES>  (160) 
S=C([NH2+]CCc1c[nH]c2ccccc12)[NH2+]C1CCCC1

>  <Energy>  (160) 
74.4553557267311

>  <Genealogy>  (160) 
S=C([NH2+]CCc1c[nH]c2ccccc12)[NH2+]C1CCCC1 (protonated)
S=C([NH2+]CCc1c[nH]c2ccccc12)[NH2+]C1CCCC1 (3D coordinates assigned)
S=C([NH2+]CCc1c[nH]c2ccccc12)[NH2+]C1CCCC1 (nonaromatic ring conformer: 74.4553557267311 kcal/mol)

$$$$
untitled_line_160
     RDKit          3D

 37 39  0  0  0  0  0  0  0  0999 V2000
    3.9599    0.3137   -1.2385 O   0  0  0  0  0  0  0  0  0  0  0  0
    2.9854   -0.8191   -1.0748 S   0  0  0  0  0  6  0  0  0  0  0  0
    3.7576   -2.1093   -1.0333 O   0  0  0  0  0  0  0  0  0  0  0  0
    1.8763   -0.8200   -2.4128 N   0  0  0  0  0  0  0  0  0  0  0  0
    1.1599   -2.0994   -2.5109 C   0  0  0  0  0  0  0  0  0  0  0  0
   -0.3175   -1.8447   -2.8094 C   0  0  0  0  0  0  0  0  0  0  0  0
   -1.0124   -1.2543   -1.6162 C   0  0  0  0  0  0  0  0  0  0  0  0
   -1.5809   -1.9618   -0.5610 C   0  0  0  0  0  0  0  0  0  0  0  0
   -2.0345   -1.1120    0.3881 N   0  0  0  0  0  0  0  0  0  0  0  0
   -1.7450    0.1246   -0.0517 C   0  0  0  0  0  0  0  0  0  0  0  0
   -1.9890    1.3312    0.6024 C   0  0  0  0  0  0  0  0  0  0  0  0
   -1.5596    2.5161   -0.0222 C   0  0  0  0  0  0  0  0  0  0  0  0
   -0.9034    2.4689   -1.2721 C   0  0  0  0  0  0  0  0  0  0  0  0
   -0.6729    1.2368   -1.9104 C   0  0  0  0  0  0  0  0  0  0  0  0
   -1.1126    0.0789   -1.2681 C   0  0  0  0  0  0  0  0  0  0  0  0
    2.0864   -0.5985    0.4236 C   0  0  0  0  0  0  0  0  0  0  0  0
    1.7629    0.6937    0.8622 C   0  0  0  0  0  0  0  0  0  0  0  0
    1.0297    0.8734    2.0389 C   0  0  0  0  0  0  0  0  0  0  0  0
    0.6037   -0.2358    2.7747 C   0  0  0  0  0  0  0  0  0  0  0  0
    0.9168   -1.5260    2.3379 C   0  0  0  0  0  0  0  0  0  0  0  0
    1.6581   -1.7087    1.1664 C   0  0  0  0  0  0  0  0  0  0  0  0
    2.4362   -0.6795   -3.2852 H   0  0  0  0  0  0  0  0  0  0  0  0
    1.5930   -2.7144   -3.3315 H   0  0  0  0  0  0  0  0  0  0  0  0
    1.2321   -2.7032   -1.5794 H   0  0  0  0  0  0  0  0  0  0  0  0
   -0.8060   -2.8083   -3.0702 H   0  0  0  0  0  0  0  0  0  0  0  0
   -0.4197   -1.1692   -3.6859 H   0  0  0  0  0  0  0  0  0  0  0  0
   -1.6400   -3.0396   -0.4839 H   0  0  0  0  0  0  0  0  0  0  0  0
   -2.4923   -1.3697    1.2906 H   0  0  0  0  0  0  0  0  0  0  0  0
   -2.4799    1.3559    1.5666 H   0  0  0  0  0  0  0  0  0  0  0  0
   -1.7273    3.4694    0.4615 H   0  0  0  0  0  0  0  0  0  0  0  0
   -0.5727    3.3866   -1.7407 H   0  0  0  0  0  0  0  0  0  0  0  0
   -0.1659    1.1946   -2.8653 H   0  0  0  0  0  0  0  0  0  0  0  0
    2.0700    1.5600    0.2903 H   0  0  0  0  0  0  0  0  0  0  0  0
    0.7794    1.8721    2.3726 H   0  0  0  0  0  0  0  0  0  0  0  0
    0.0270   -0.0956    3.6797 H   0  0  0  0  0  0  0  0  0  0  0  0
    0.5825   -2.3847    2.9055 H   0  0  0  0  0  0  0  0  0  0  0  0
    1.8905   -2.7132    0.8377 H   0  0  0  0  0  0  0  0  0  0  0  0
  1  2  2  0
  2  3  2  0
  2  4  1  0
  4  5  1  0
  5  6  1  0
  6  7  1  0
  7  8  2  0
  8  9  1  0
  9 10  1  0
 10 11  2  0
 11 12  1  0
 12 13  2  0
 13 14  1  0
 14 15  2  0
  2 16  1  0
 16 17  2  0
 17 18  1  0
 18 19  2  0
 19 20  1  0
 20 21  2  0
 15  7  1  0
 21 16  1  0
 15 10  1  0
  4 22  1  0
  5 23  1  0
  5 24  1  0
  6 25  1  0
  6 26  1  0
  8 27  1  0
  9 28  1  0
 11 29  1  0
 12 30  1  0
 13 31  1  0
 14 32  1  0
 17 33  1  0
 18 34  1  0
 19 35  1  0
 20 36  1  0
 21 37  1  0
M  END
>  <UniqueID>  (161) 
160

>  <SMILES>  (161) 
O=S(=O)(NCCc1c[nH]c2ccccc12)c1ccccc1

>  <Energy>  (161) 
63.12657374131277

>  <Genealogy>  (161) 
O=S(=O)(NCCc1c[nH]c2ccccc12)c1ccccc1 (3D coordinates assigned)
O=S(=O)(NCCc1c[nH]c2ccccc12)c1ccccc1 (optimized conformer: 63.12657374131277 kcal/mol)

$$$$
untitled_line_161
     RDKit          3D

 46 48  0  0  0  0  0  0  0  0999 V2000
    0.7944    5.8362   -3.7997 C   0  0  0  0  0  0  0  0  0  0  0  0
    0.0361    5.4276   -2.6659 O   0  0  0  0  0  0  0  0  0  0  0  0
    0.1124    4.1566   -2.0743 C   0  0  0  0  0  0  0  0  0  0  0  0
    0.9670    3.1528   -2.5682 C   0  0  0  0  0  0  0  0  0  0  0  0
    1.0167    1.9011   -1.9526 C   0  0  0  0  0  0  0  0  0  0  0  0
    0.2251    1.6332   -0.8285 C   0  0  0  0  0  0  0  0  0  0  0  0
    0.2531    0.2680   -0.1894 C   0  0  0  0  0  0  0  0  0  0  0  0
   -0.7352   -0.6177   -0.8271 N   0  0  0  0  0  4  0  0  0  0  0  0
   -0.7983   -1.9405   -0.1794 C   0  0  0  0  0  0  0  0  0  0  0  0
    0.3620   -2.8545   -0.6059 C   0  0  0  0  0  0  0  0  0  0  0  0
    0.2162   -4.2105    0.0169 C   0  0  0  0  0  0  0  0  0  0  0  0
   -0.3878   -5.3265   -0.5545 C   0  0  0  0  0  0  0  0  0  0  0  0
   -0.4037   -6.3554    0.3236 N   0  0  0  0  0  0  0  0  0  0  0  0
    0.1729   -5.8943    1.4473 C   0  0  0  0  0  0  0  0  0  0  0  0
    0.3675   -6.5852    2.6427 C   0  0  0  0  0  0  0  0  0  0  0  0
    0.9776   -5.8973    3.7078 C   0  0  0  0  0  0  0  0  0  0  0  0
    1.3713   -4.5489    3.5573 C   0  0  0  0  0  0  0  0  0  0  0  0
    1.1605   -3.8762    2.3398 C   0  0  0  0  0  0  0  0  0  0  0  0
    0.5590   -4.5866    1.3006 C   0  0  0  0  0  0  0  0  0  0  0  0
   -0.6395    2.6247   -0.3421 C   0  0  0  0  0  0  0  0  0  0  0  0
   -0.6964    3.8907   -0.9579 C   0  0  0  0  0  0  0  0  0  0  0  0
   -1.5442    4.9084   -0.4921 O   0  0  0  0  0  0  0  0  0  0  0  0
   -2.4188    4.7823    0.6245 C   0  0  0  0  0  0  0  0  0  0  0  0
    0.5532    5.1931   -4.6724 H   0  0  0  0  0  0  0  0  0  0  0  0
    0.5356    6.8854   -4.0497 H   0  0  0  0  0  0  0  0  0  0  0  0
    1.8801    5.7823   -3.5726 H   0  0  0  0  0  0  0  0  0  0  0  0
    1.5952    3.3289   -3.4306 H   0  0  0  0  0  0  0  0  0  0  0  0
    1.6732    1.1387   -2.3538 H   0  0  0  0  0  0  0  0  0  0  0  0
    1.2762   -0.1546   -0.2864 H   0  0  0  0  0  0  0  0  0  0  0  0
    0.0388    0.3658    0.8989 H   0  0  0  0  0  0  0  0  0  0  0  0
   -1.6810   -0.1748   -0.7458 H   0  0  0  0  0  0  0  0  0  0  0  0
   -0.5140   -0.7265   -1.8452 H   0  0  0  0  0  0  0  0  0  0  0  0
   -0.8140   -1.8344    0.9291 H   0  0  0  0  0  0  0  0  0  0  0  0
   -1.7535   -2.4339   -0.4701 H   0  0  0  0  0  0  0  0  0  0  0  0
    1.3354   -2.4235   -0.2944 H   0  0  0  0  0  0  0  0  0  0  0  0
    0.3715   -2.9599   -1.7123 H   0  0  0  0  0  0  0  0  0  0  0  0
   -0.8023   -5.3780   -1.5528 H   0  0  0  0  0  0  0  0  0  0  0  0
   -0.7986   -7.3086    0.1624 H   0  0  0  0  0  0  0  0  0  0  0  0
    0.0568   -7.6163    2.7505 H   0  0  0  0  0  0  0  0  0  0  0  0
    1.1433   -6.4039    4.6497 H   0  0  0  0  0  0  0  0  0  0  0  0
    1.8366   -4.0290    4.3846 H   0  0  0  0  0  0  0  0  0  0  0  0
    1.4554   -2.8419    2.2187 H   0  0  0  0  0  0  0  0  0  0  0  0
   -1.2641    2.4020    0.5127 H   0  0  0  0  0  0  0  0  0  0  0  0
   -2.9656    5.7370    0.7659 H   0  0  0  0  0  0  0  0  0  0  0  0
   -1.8352    4.5675    1.5445 H   0  0  0  0  0  0  0  0  0  0  0  0
   -3.1575    3.9735    0.4416 H   0  0  0  0  0  0  0  0  0  0  0  0
  1  2  1  0
  2  3  1  0
  3  4  2  0
  4  5  1  0
  5  6  2  0
  6  7  1  0
  7  8  1  0
  8  9  1  0
  9 10  1  0
 10 11  1  0
 11 12  2  0
 12 13  1  0
 13 14  1  0
 14 15  2  0
 15 16  1  0
 16 17  2  0
 17 18  1  0
 18 19  2  0
  6 20  1  0
 20 21  2  0
 21 22  1  0
 22 23  1  0
 21  3  1  0
 19 11  1  0
 19 14  1  0
  1 24  1  0
  1 25  1  0
  1 26  1  0
  4 27  1  0
  5 28  1  0
  7 29  1  0
  7 30  1  0
  8 31  1  0
  8 32  1  0
  9 33  1  0
  9 34  1  0
 10 35  1  0
 10 36  1  0
 12 37  1  0
 13 38  1  0
 15 39  1  0
 16 40  1  0
 17 41  1  0
 18 42  1  0
 20 43  1  0
 23 44  1  0
 23 45  1  0
 23 46  1  0
M  CHG  1   8   1
M  END
>  <UniqueID>  (162) 
161

>  <SMILES>  (162) 
COc1ccc(C[NH2+]CCc2c[nH]c3ccccc23)cc1OC

>  <Energy>  (162) 
76.6828957539682

>  <Genealogy>  (162) 
COc1ccc(C[NH2+]CCc2c[nH]c3ccccc23)cc1OC (protonated)
COc1ccc(C[NH2+]CCc2c[nH]c3ccccc23)cc1OC (3D coordinates assigned)
COc1ccc(C[NH2+]CCc2c[nH]c3ccccc23)cc1OC (optimized conformer: 76.6828957539682 kcal/mol)

$$$$
untitled_line_162
     RDKit          3D

 38 40  0  0  0  0  0  0  0  0999 V2000
    6.4120    2.3787   -0.5772 F   0  0  0  0  0  0  0  0  0  0  0  0
    5.6697    1.3358   -0.1304 C   0  0  0  0  0  0  0  0  0  0  0  0
    6.2019    0.4543    0.8152 C   0  0  0  0  0  0  0  0  0  0  0  0
    5.4343   -0.6157    1.2836 C   0  0  0  0  0  0  0  0  0  0  0  0
    4.1350   -0.8092    0.8043 C   0  0  0  0  0  0  0  0  0  0  0  0
    3.5987    0.0631   -0.1574 C   0  0  0  0  0  0  0  0  0  0  0  0
    2.1849   -0.1221   -0.6462 C   0  0  0  0  0  0  0  0  0  0  0  0
    1.2405    0.5854    0.2342 N   0  0  0  0  0  4  0  0  0  0  0  0
   -0.1465    0.5130   -0.2599 C   0  0  0  0  0  0  0  0  0  0  0  0
   -0.7938   -0.8544    0.0144 C   0  0  0  0  0  0  0  0  0  0  0  0
   -2.2386   -0.8400   -0.3865 C   0  0  0  0  0  0  0  0  0  0  0  0
   -2.7599   -1.2109   -1.6224 C   0  0  0  0  0  0  0  0  0  0  0  0
   -4.0954   -0.9982   -1.6543 N   0  0  0  0  0  0  0  0  0  0  0  0
   -4.4187   -0.4840   -0.4547 C   0  0  0  0  0  0  0  0  0  0  0  0
   -5.6811   -0.0826   -0.0196 C   0  0  0  0  0  0  0  0  0  0  0  0
   -5.7900    0.4531    1.2769 C   0  0  0  0  0  0  0  0  0  0  0  0
   -4.6474    0.5780    2.0982 C   0  0  0  0  0  0  0  0  0  0  0  0
   -3.3855    0.1665    1.6317 C   0  0  0  0  0  0  0  0  0  0  0  0
   -3.3104   -0.3664    0.3446 C   0  0  0  0  0  0  0  0  0  0  0  0
    4.3703    1.1455   -0.6122 C   0  0  0  0  0  0  0  0  0  0  0  0
    7.2068    0.6022    1.1892 H   0  0  0  0  0  0  0  0  0  0  0  0
    5.8449   -1.2932    2.0211 H   0  0  0  0  0  0  0  0  0  0  0  0
    3.5470   -1.6363    1.1826 H   0  0  0  0  0  0  0  0  0  0  0  0
    1.9539   -1.2087   -0.6725 H   0  0  0  0  0  0  0  0  0  0  0  0
    2.1020    0.2598   -1.6888 H   0  0  0  0  0  0  0  0  0  0  0  0
    1.2957    0.1957    1.2048 H   0  0  0  0  0  0  0  0  0  0  0  0
    1.5141    1.5959    0.2740 H   0  0  0  0  0  0  0  0  0  0  0  0
   -0.1881    0.7412   -1.3491 H   0  0  0  0  0  0  0  0  0  0  0  0
   -0.7472    1.2950    0.2576 H   0  0  0  0  0  0  0  0  0  0  0  0
   -0.2747   -1.6501   -0.5589 H   0  0  0  0  0  0  0  0  0  0  0  0
   -0.7167   -1.1031    1.0945 H   0  0  0  0  0  0  0  0  0  0  0  0
   -2.1908   -1.6033   -2.4551 H   0  0  0  0  0  0  0  0  0  0  0  0
   -4.7387   -1.1826   -2.4559 H   0  0  0  0  0  0  0  0  0  0  0  0
   -6.5496   -0.1763   -0.6586 H   0  0  0  0  0  0  0  0  0  0  0  0
   -6.7552    0.7747    1.6458 H   0  0  0  0  0  0  0  0  0  0  0  0
   -4.7427    0.9948    3.0924 H   0  0  0  0  0  0  0  0  0  0  0  0
   -2.5053    0.2638    2.2538 H   0  0  0  0  0  0  0  0  0  0  0  0
    3.9646    1.8404   -1.3372 H   0  0  0  0  0  0  0  0  0  0  0  0
  1  2  1  0
  2  3  2  0
  3  4  1  0
  4  5  2  0
  5  6  1  0
  6  7  1  0
  7  8  1  0
  8  9  1  0
  9 10  1  0
 10 11  1  0
 11 12  2  0
 12 13  1  0
 13 14  1  0
 14 15  2  0
 15 16  1  0
 16 17  2  0
 17 18  1  0
 18 19  2  0
  6 20  2  0
 20  2  1  0
 19 11  1  0
 19 14  1  0
  3 21  1  0
  4 22  1  0
  5 23  1  0
  7 24  1  0
  7 25  1  0
  8 26  1  0
  8 27  1  0
  9 28  1  0
  9 29  1  0
 10 30  1  0
 10 31  1  0
 12 32  1  0
 13 33  1  0
 15 34  1  0
 16 35  1  0
 17 36  1  0
 18 37  1  0
 20 38  1  0
M  CHG  1   8   1
M  END
>  <UniqueID>  (163) 
162

>  <SMILES>  (163) 
Fc1cccc(C[NH2+]CCc2c[nH]c3ccccc23)c1

>  <Energy>  (163) 
70.26220427255849

>  <Genealogy>  (163) 
Fc1cccc(C[NH2+]CCc2c[nH]c3ccccc23)c1 (protonated)
Fc1cccc(C[NH2+]CCc2c[nH]c3ccccc23)c1 (3D coordinates assigned)
Fc1cccc(C[NH2+]CCc2c[nH]c3ccccc23)c1 (optimized conformer: 70.26220427255849 kcal/mol)

$$$$
untitled_line_163
     RDKit          3D

 35 37  0  0  0  0  0  0  0  0999 V2000
    3.1820   -3.2754    0.6363 C   0  0  0  0  0  0  0  0  0  0  0  0
    2.4788   -3.9622    1.6060 C   0  0  0  0  0  0  0  0  0  0  0  0
    1.1929   -3.9033    1.3456 O   0  0  0  0  0  0  0  0  0  0  0  0
    1.0223   -3.2114    0.2431 C   0  0  0  0  0  0  0  0  0  0  0  0
   -0.3162   -2.9016   -0.3549 C   0  0  0  0  0  0  0  0  0  0  0  0
   -0.7903   -1.5891    0.1049 N   0  0  0  0  0  4  0  0  0  0  0  0
   -2.0989   -1.2726   -0.4903 C   0  0  0  0  0  0  0  0  0  0  0  0
   -2.6629    0.0509    0.0485 C   0  0  0  0  0  0  0  0  0  0  0  0
   -1.8428    1.2281   -0.3945 C   0  0  0  0  0  0  0  0  0  0  0  0
   -1.9048    1.8570   -1.6344 C   0  0  0  0  0  0  0  0  0  0  0  0
   -0.9739    2.8350   -1.7150 N   0  0  0  0  0  0  0  0  0  0  0  0
   -0.3180    2.8216   -0.5415 C   0  0  0  0  0  0  0  0  0  0  0  0
    0.7476    3.6360   -0.1606 C   0  0  0  0  0  0  0  0  0  0  0  0
    1.3058    3.4349    1.1150 C   0  0  0  0  0  0  0  0  0  0  0  0
    0.7946    2.4335    1.9701 C   0  0  0  0  0  0  0  0  0  0  0  0
   -0.2808    1.6254    1.5587 C   0  0  0  0  0  0  0  0  0  0  0  0
   -0.8170    1.8517    0.2902 C   0  0  0  0  0  0  0  0  0  0  0  0
    2.2415   -2.7865   -0.2445 C   0  0  0  0  0  0  0  0  0  0  0  0
    4.2542   -3.1433    0.5817 H   0  0  0  0  0  0  0  0  0  0  0  0
    2.9070   -4.4737    2.4575 H   0  0  0  0  0  0  0  0  0  0  0  0
   -0.2277   -2.9138   -1.4646 H   0  0  0  0  0  0  0  0  0  0  0  0
   -1.0328   -3.6976   -0.0531 H   0  0  0  0  0  0  0  0  0  0  0  0
   -0.0935   -0.8613   -0.1794 H   0  0  0  0  0  0  0  0  0  0  0  0
   -0.8765   -1.6021    1.1489 H   0  0  0  0  0  0  0  0  0  0  0  0
   -2.0135   -1.2124   -1.5992 H   0  0  0  0  0  0  0  0  0  0  0  0
   -2.8283   -2.0778   -0.2473 H   0  0  0  0  0  0  0  0  0  0  0  0
   -2.7215    0.0175    1.1573 H   0  0  0  0  0  0  0  0  0  0  0  0
   -3.6995    0.1786   -0.3311 H   0  0  0  0  0  0  0  0  0  0  0  0
   -2.5850    1.6032   -2.4369 H   0  0  0  0  0  0  0  0  0  0  0  0
   -0.7940    3.4606   -2.5314 H   0  0  0  0  0  0  0  0  0  0  0  0
    1.1369    4.3962   -0.8254 H   0  0  0  0  0  0  0  0  0  0  0  0
    2.1346    4.0492    1.4417 H   0  0  0  0  0  0  0  0  0  0  0  0
    1.2345    2.2853    2.9477 H   0  0  0  0  0  0  0  0  0  0  0  0
   -0.6718    0.8534    2.2080 H   0  0  0  0  0  0  0  0  0  0  0  0
    2.4227   -2.1886   -1.1280 H   0  0  0  0  0  0  0  0  0  0  0  0
  1  2  2  0
  2  3  1  0
  3  4  1  0
  4  5  1  0
  5  6  1  0
  6  7  1  0
  7  8  1  0
  8  9  1  0
  9 10  2  0
 10 11  1  0
 11 12  1  0
 12 13  2  0
 13 14  1  0
 14 15  2  0
 15 16  1  0
 16 17  2  0
  4 18  2  0
 18  1  1  0
 17  9  1  0
 17 12  1  0
  1 19  1  0
  2 20  1  0
  5 21  1  0
  5 22  1  0
  6 23  1  0
  6 24  1  0
  7 25  1  0
  7 26  1  0
  8 27  1  0
  8 28  1  0
 10 29  1  0
 11 30  1  0
 13 31  1  0
 14 32  1  0
 15 33  1  0
 16 34  1  0
 18 35  1  0
M  CHG  1   6   1
M  END
>  <UniqueID>  (164) 
163

>  <SMILES>  (164) 
c1coc(C[NH2+]CCc2c[nH]c3ccccc23)c1

>  <Energy>  (164) 
90.43219287386383

>  <Genealogy>  (164) 
c1coc(C[NH2+]CCc2c[nH]c3ccccc23)c1 (protonated)
c1coc(C[NH2+]CCc2c[nH]c3ccccc23)c1 (3D coordinates assigned)
c1coc(C[NH2+]CCc2c[nH]c3ccccc23)c1 (optimized conformer: 90.43219287386383 kcal/mol)

$$$$
