EMPTY MOLECULE DESCRIBING GYPSUM-DL PARAMETERS
     RDKit          2D

  0  0  0  0  0  0  0  0  0  0999 V2000
M  END
>  <source>  (1) 
/home/njs00/galene/data/lig/rg-108_analogs.smi

>  <output_folder>  (1) 
data/lig

>  <separate_output_files>  (1) 
False

>  <add_pdb_output>  (1) 
False

>  <add_html_output>  (1) 
False

>  <num_processors>  (1) 
-1

>  <start_time>  (1) 
0

>  <end_time>  (1) 
0

>  <run_time>  (1) 
0

>  <min_ph>  (1) 
6.0

>  <max_ph>  (1) 
8.0

>  <pka_precision>  (1) 
1.0

>  <thoroughness>  (1) 
3

>  <max_variants_per_compound>  (1) 
1

>  <second_embed>  (1) 
False

>  <2d_output_only>  (1) 
False

>  <skip_optimize_geometry>  (1) 
False

>  <skip_alternate_ring_conformations>  (1) 
False

>  <skip_adding_hydrogen>  (1) 
False

>  <skip_making_tautomers>  (1) 
False

>  <skip_enumerate_chiral_mol>  (1) 
False

>  <skip_enumerate_double_bonds>  (1) 
False

>  <let_tautomers_change_chirality>  (1) 
False

>  <use_durrant_lab_filters>  (1) 
False

>  <job_manager>  (1) 
multiprocessing

>  <cache_prerun>  (1) 
False

>  <test>  (1) 
False

>  <Parallelizer>  (1) 
<gypsum_dl.Parallelizer.Parallelizer object at 0x7fe968760b50>

$$$$
untitled_line_1
     RDKit          3D

 38 40  0  0  0  0  0  0  0  0999 V2000
    2.2438    0.4482    2.1877 O   0  0  0  0  0  0  0  0  0  0  0  0
    2.1653    0.6049    0.9381 C   0  0  0  0  0  0  0  0  0  0  0  0
    2.5874   -0.4600    0.0659 N   0  0  0  0  0  0  0  0  0  0  0  0
    2.7747   -1.8369    0.5409 C   0  0  1  0  0  0  0  0  0  0  0  0
    1.5066   -2.6730    0.2921 C   0  0  0  0  0  0  0  0  0  0  0  0
    0.3383   -2.1373    1.0695 C   0  0  0  0  0  0  0  0  0  0  0  0
    0.1155   -2.2955    2.4344 C   0  0  0  0  0  0  0  0  0  0  0  0
   -0.9536   -1.5660    2.8266 N   0  0  0  0  0  0  0  0  0  0  0  0
   -1.4006   -0.9393    1.7246 C   0  0  0  0  0  0  0  0  0  0  0  0
   -2.4596   -0.0366    1.6378 C   0  0  0  0  0  0  0  0  0  0  0  0
   -2.7321    0.5391    0.3834 C   0  0  0  0  0  0  0  0  0  0  0  0
   -1.9491    0.2036   -0.7429 C   0  0  0  0  0  0  0  0  0  0  0  0
   -0.8860   -0.7098   -0.6254 C   0  0  0  0  0  0  0  0  0  0  0  0
   -0.6385   -1.2633    0.6312 C   0  0  0  0  0  0  0  0  0  0  0  0
    3.9555   -2.4578   -0.1513 C   0  0  0  0  0  0  0  0  0  0  0  0
    3.9604   -2.6025   -1.4029 O   0  0  0  0  0  0  0  0  0  0  0  0
    5.0545   -2.8741    0.5897 O   0  0  0  0  0  1  0  0  0  0  0  0
    1.6374    1.8888    0.4048 C   0  0  0  0  0  0  0  0  0  0  0  0
    1.5607    3.0156    1.2471 C   0  0  0  0  0  0  0  0  0  0  0  0
    1.0415    4.2244    0.7743 C   0  0  0  0  0  0  0  0  0  0  0  0
    0.5858    4.3243   -0.5409 C   0  0  0  0  0  0  0  0  0  0  0  0
    0.6476    3.2151   -1.3856 C   0  0  0  0  0  0  0  0  0  0  0  0
    1.1689    2.0042   -0.9198 C   0  0  0  0  0  0  0  0  0  0  0  0
    2.6854   -0.2799   -0.9575 H   0  0  0  0  0  0  0  0  0  0  0  0
    2.9913   -1.8398    1.6321 H   0  0  0  0  0  0  0  0  0  0  0  0
    1.6876   -3.7230    0.6102 H   0  0  0  0  0  0  0  0  0  0  0  0
    1.2634   -2.6892   -0.7920 H   0  0  0  0  0  0  0  0  0  0  0  0
    0.7223   -2.8870    3.1074 H   0  0  0  0  0  0  0  0  0  0  0  0
   -1.3331   -1.4851    3.7961 H   0  0  0  0  0  0  0  0  0  0  0  0
   -3.0485    0.2209    2.5085 H   0  0  0  0  0  0  0  0  0  0  0  0
   -3.5445    1.2467    0.2820 H   0  0  0  0  0  0  0  0  0  0  0  0
   -2.1637    0.6571   -1.7018 H   0  0  0  0  0  0  0  0  0  0  0  0
   -0.2776   -0.9621   -1.4835 H   0  0  0  0  0  0  0  0  0  0  0  0
    1.9063    2.9649    2.2722 H   0  0  0  0  0  0  0  0  0  0  0  0
    0.9905    5.0841    1.4300 H   0  0  0  0  0  0  0  0  0  0  0  0
    0.1808    5.2599   -0.9043 H   0  0  0  0  0  0  0  0  0  0  0  0
    0.2841    3.2908   -2.4023 H   0  0  0  0  0  0  0  0  0  0  0  0
    1.1726    1.1629   -1.5964 H   0  0  0  0  0  0  0  0  0  0  0  0
  1  2  2  0
  2  3  1  0
  3  4  1  0
  4  5  1  0
  5  6  1  0
  6  7  2  0
  7  8  1  0
  8  9  1  0
  9 10  2  0
 10 11  1  0
 11 12  2  0
 12 13  1  0
 13 14  2  0
  4 15  1  0
 15 16  2  0
 15 17  1  0
  2 18  1  0
 18 19  2  0
 19 20  1  0
 20 21  2  0
 21 22  1  0
 22 23  2  0
 14  6  1  0
 23 18  1  0
 14  9  1  0
  3 24  1  0
  4 25  1  1
  5 26  1  0
  5 27  1  0
  7 28  1  0
  8 29  1  0
 10 30  1  0
 11 31  1  0
 12 32  1  0
 13 33  1  0
 19 34  1  0
 20 35  1  0
 21 36  1  0
 22 37  1  0
 23 38  1  0
M  CHG  1  17  -1
M  END
>  <UniqueID>  (2) 
1

>  <SMILES>  (2) 
O=C(N[C@@H](Cc1c[nH]c2ccccc12)C(=O)[O-])c1ccccc1

>  <Energy>  (2) 
69.35585499611834

>  <Genealogy>  (2) 
O=C(N[C@@H](Cc1c[nH]c2ccccc12)C(=O)[O-])c1ccccc1 (protonated)
O=C(N[C@@H](Cc1c[nH]c2ccccc12)C(=O)[O-])c1ccccc1 (3D coordinates assigned)
O=C(N[C@@H](Cc1c[nH]c2ccccc12)C(=O)[O-])c1ccccc1 (optimized conformer: 69.35585499611834 kcal/mol)

$$$$
untitled_line_2
     RDKit          3D

 29 30  0  0  0  0  0  0  0  0999 V2000
   -1.6023    2.7793   -0.0438 N   0  0  0  0  0  2  0  0  0  0  0  0
   -1.8587    1.3851    0.0980 C   0  0  0  0  0  0  0  0  0  0  0  0
   -2.0804    0.9056    1.2423 O   0  0  0  0  0  0  0  0  0  0  0  0
   -1.8521    0.5420   -1.0613 N   0  0  0  0  0  0  0  0  0  0  0  0
   -1.9884   -0.9168   -0.9896 C   0  0  2  0  0  0  0  0  0  0  0  0
   -0.6165   -1.5939   -1.1481 C   0  0  0  0  0  0  0  0  0  0  0  0
    0.2932   -1.2571   -0.0021 C   0  0  0  0  0  0  0  0  0  0  0  0
    0.3134   -1.8762    1.2442 C   0  0  0  0  0  0  0  0  0  0  0  0
    1.1884   -1.2540    2.0667 N   0  0  0  0  0  0  0  0  0  0  0  0
    1.7108   -0.2400    1.3552 C   0  0  0  0  0  0  0  0  0  0  0  0
    2.6387    0.7058    1.7891 C   0  0  0  0  0  0  0  0  0  0  0  0
    3.0287    1.7084    0.8826 C   0  0  0  0  0  0  0  0  0  0  0  0
    2.4860    1.7452   -0.4210 C   0  0  0  0  0  0  0  0  0  0  0  0
    1.5500    0.7786   -0.8310 C   0  0  0  0  0  0  0  0  0  0  0  0
    1.1865   -0.2065    0.0881 C   0  0  0  0  0  0  0  0  0  0  0  0
   -2.9290   -1.3877   -2.0620 C   0  0  0  0  0  0  0  0  0  0  0  0
   -2.6852   -1.1519   -3.2755 O   0  0  0  0  0  0  0  0  0  0  0  0
   -4.0748   -2.0945   -1.7191 O   0  0  0  0  0  1  0  0  0  0  0  0
   -1.5942    3.4101    0.7882 H   0  0  0  0  0  0  0  0  0  0  0  0
   -1.6085    0.9787   -1.9795 H   0  0  0  0  0  0  0  0  0  0  0  0
   -2.4210   -1.2159   -0.0090 H   0  0  0  0  0  0  0  0  0  0  0  0
   -0.1434   -1.2866   -2.1059 H   0  0  0  0  0  0  0  0  0  0  0  0
   -0.7489   -2.6977   -1.1798 H   0  0  0  0  0  0  0  0  0  0  0  0
   -0.2935   -2.7229    1.5374 H   0  0  0  0  0  0  0  0  0  0  0  0
    1.3966   -1.5012    3.0596 H   0  0  0  0  0  0  0  0  0  0  0  0
    3.0426    0.6744    2.7927 H   0  0  0  0  0  0  0  0  0  0  0  0
    3.7463    2.4588    1.1876 H   0  0  0  0  0  0  0  0  0  0  0  0
    2.7899    2.5239   -1.1082 H   0  0  0  0  0  0  0  0  0  0  0  0
    1.1258    0.8069   -1.8259 H   0  0  0  0  0  0  0  0  0  0  0  0
  1  2  1  0
  2  3  2  0
  2  4  1  0
  4  5  1  0
  5  6  1  0
  6  7  1  0
  7  8  2  0
  8  9  1  0
  9 10  1  0
 10 11  2  0
 11 12  1  0
 12 13  2  0
 13 14  1  0
 14 15  2  0
  5 16  1  0
 16 17  2  0
 16 18  1  0
 15  7  1  0
 15 10  1  0
  1 19  1  0
  4 20  1  0
  5 21  1  1
  6 22  1  0
  6 23  1  0
  8 24  1  0
  9 25  1  0
 11 26  1  0
 12 27  1  0
 13 28  1  0
 14 29  1  0
M  CHG  2   1  -1  18  -1
M  END
>  <UniqueID>  (3) 
2

>  <SMILES>  (3) 
[NH-]C(=O)N[C@H](Cc1c[nH]c2ccccc12)C(=O)[O-]

>  <Energy>  (3) 
55.903335679288624

>  <Genealogy>  (3) 
[NH-]C(=O)N[C@H](Cc1c[nH]c2ccccc12)C(=O)[O-] (protonated)
[NH-]C(=O)N[C@H](Cc1c[nH]c2ccccc12)C(=O)[O-] (3D coordinates assigned)
[NH-]C(=O)N[C@H](Cc1c[nH]c2ccccc12)C(=O)[O-] (optimized conformer: 55.903335679288624 kcal/mol)

$$$$
untitled_line_3
     RDKit          3D

 28 29  0  0  0  0  0  0  0  0999 V2000
   -2.3909   -1.1136    1.1637 N   0  0  0  0  0  0  0  0  0  0  0  0
   -2.7474   -0.0359    0.2971 C   0  0  0  0  0  0  0  0  0  0  0  0
   -3.7613   -0.1451   -0.4440 O   0  0  0  0  0  0  0  0  0  0  0  0
   -1.8862    1.1995    0.2241 C   0  0  2  0  0  0  0  0  0  0  0  0
   -2.7333    2.3946    0.2018 N   0  0  0  0  0  0  0  0  0  0  0  0
   -0.9603    1.1583   -1.0090 C   0  0  0  0  0  0  0  0  0  0  0  0
    0.0275    0.0301   -0.9208 C   0  0  0  0  0  0  0  0  0  0  0  0
   -0.0849   -1.2199   -1.5224 C   0  0  0  0  0  0  0  0  0  0  0  0
    0.9492   -2.0129   -1.1596 N   0  0  0  0  0  0  0  0  0  0  0  0
    1.7064   -1.2781   -0.3263 C   0  0  0  0  0  0  0  0  0  0  0  0
    2.8736   -1.6737    0.3256 C   0  0  0  0  0  0  0  0  0  0  0  0
    3.4987   -0.7439    1.1767 C   0  0  0  0  0  0  0  0  0  0  0  0
    2.9474    0.5442    1.3580 C   0  0  0  0  0  0  0  0  0  0  0  0
    1.7669    0.9150    0.6887 C   0  0  0  0  0  0  0  0  0  0  0  0
    1.1734   -0.0265   -0.1523 C   0  0  0  0  0  0  0  0  0  0  0  0
   -2.9789   -1.9755    1.2007 H   0  0  0  0  0  0  0  0  0  0  0  0
   -1.5314   -1.0634    1.7544 H   0  0  0  0  0  0  0  0  0  0  0  0
   -1.2569    1.2474    1.1410 H   0  0  0  0  0  0  0  0  0  0  0  0
   -3.2161    2.4651   -0.7242 H   0  0  0  0  0  0  0  0  0  0  0  0
   -2.1220    3.2384    0.2954 H   0  0  0  0  0  0  0  0  0  0  0  0
   -0.3990    2.1145   -1.0843 H   0  0  0  0  0  0  0  0  0  0  0  0
   -1.5635    1.0527   -1.9374 H   0  0  0  0  0  0  0  0  0  0  0  0
   -0.8878   -1.5357   -2.1757 H   0  0  0  0  0  0  0  0  0  0  0  0
    1.1132   -3.0007   -1.4559 H   0  0  0  0  0  0  0  0  0  0  0  0
    3.2851   -2.6649    0.1851 H   0  0  0  0  0  0  0  0  0  0  0  0
    4.4063   -1.0186    1.6983 H   0  0  0  0  0  0  0  0  0  0  0  0
    3.4354    1.2500    2.0174 H   0  0  0  0  0  0  0  0  0  0  0  0
    1.3369    1.8986    0.8255 H   0  0  0  0  0  0  0  0  0  0  0  0
  1  2  1  0
  2  3  2  0
  2  4  1  0
  4  5  1  0
  4  6  1  0
  6  7  1  0
  7  8  2  0
  8  9  1  0
  9 10  1  0
 10 11  2  0
 11 12  1  0
 12 13  2  0
 13 14  1  0
 14 15  2  0
 15  7  1  0
 15 10  1  0
  1 16  1  0
  1 17  1  0
  4 18  1  1
  5 19  1  0
  5 20  1  0
  6 21  1  0
  6 22  1  0
  8 23  1  0
  9 24  1  0
 11 25  1  0
 12 26  1  0
 13 27  1  0
 14 28  1  0
M  END
>  <UniqueID>  (4) 
3

>  <SMILES>  (4) 
NC(=O)[C@H](N)Cc1c[nH]c2ccccc12

>  <Energy>  (4) 
55.735765136804524

>  <Genealogy>  (4) 
NC(=O)[C@H](N)Cc1c[nH]c2ccccc12 (3D coordinates assigned)
NC(=O)[C@H](N)Cc1c[nH]c2ccccc12 (optimized conformer: 55.735765136804524 kcal/mol)

$$$$
untitled_line_4
     RDKit          3D

 27 28  0  0  0  0  0  0  0  0999 V2000
   -2.3271    1.9323    0.5330 N   0  0  0  0  0  2  0  0  0  0  0  0
   -2.6927    0.6561    0.0142 C   0  0  0  0  0  0  0  0  0  0  0  0
   -3.5131    0.5810   -0.9398 O   0  0  0  0  0  0  0  0  0  0  0  0
   -2.0796   -0.5947    0.5943 C   0  0  1  0  0  0  0  0  0  0  0  0
   -3.1195   -1.5103    1.0687 N   0  0  0  0  0  0  0  0  0  0  0  0
   -1.1844   -1.3093   -0.4331 C   0  0  0  0  0  0  0  0  0  0  0  0
   -0.0033   -0.4656   -0.8205 C   0  0  0  0  0  0  0  0  0  0  0  0
    0.1004    0.3510   -1.9428 C   0  0  0  0  0  0  0  0  0  0  0  0
    1.2760    1.0201   -1.9325 N   0  0  0  0  0  0  0  0  0  0  0  0
    1.9094    0.6412   -0.8088 C   0  0  0  0  0  0  0  0  0  0  0  0
    3.1520    1.0774   -0.3509 C   0  0  0  0  0  0  0  0  0  0  0  0
    3.6207    0.5611    0.8712 C   0  0  0  0  0  0  0  0  0  0  0  0
    2.8443   -0.3664    1.6013 C   0  0  0  0  0  0  0  0  0  0  0  0
    1.5929   -0.7872    1.1156 C   0  0  0  0  0  0  0  0  0  0  0  0
    1.1575   -0.2614   -0.1010 C   0  0  0  0  0  0  0  0  0  0  0  0
   -2.7332    2.8084    0.1362 H   0  0  0  0  0  0  0  0  0  0  0  0
   -1.4499   -0.3128    1.4680 H   0  0  0  0  0  0  0  0  0  0  0  0
   -3.7609   -1.7536    0.2783 H   0  0  0  0  0  0  0  0  0  0  0  0
   -3.6902   -1.0216    1.7970 H   0  0  0  0  0  0  0  0  0  0  0  0
   -0.8136   -2.2625    0.0021 H   0  0  0  0  0  0  0  0  0  0  0  0
   -1.7725   -1.5668   -1.3412 H   0  0  0  0  0  0  0  0  0  0  0  0
   -0.6492    0.4591   -2.7159 H   0  0  0  0  0  0  0  0  0  0  0  0
    1.6127    1.7030   -2.6471 H   0  0  0  0  0  0  0  0  0  0  0  0
    3.7370    1.7925   -0.9146 H   0  0  0  0  0  0  0  0  0  0  0  0
    4.5811    0.8787    1.2556 H   0  0  0  0  0  0  0  0  0  0  0  0
    3.2138   -0.7548    2.5414 H   0  0  0  0  0  0  0  0  0  0  0  0
    0.9913   -1.4948    1.6711 H   0  0  0  0  0  0  0  0  0  0  0  0
  1  2  1  0
  2  3  2  0
  2  4  1  0
  4  5  1  0
  4  6  1  0
  6  7  1  0
  7  8  2  0
  8  9  1  0
  9 10  1  0
 10 11  2  0
 11 12  1  0
 12 13  2  0
 13 14  1  0
 14 15  2  0
 15  7  1  0
 15 10  1  0
  1 16  1  0
  4 17  1  1
  5 18  1  0
  5 19  1  0
  6 20  1  0
  6 21  1  0
  8 22  1  0
  9 23  1  0
 11 24  1  0
 12 25  1  0
 13 26  1  0
 14 27  1  0
M  CHG  1   1  -1
M  END
>  <UniqueID>  (5) 
4

>  <SMILES>  (5) 
[NH-]C(=O)[C@@H](N)Cc1c[nH]c2ccccc12

>  <Energy>  (5) 
55.89090914537595

>  <Genealogy>  (5) 
[NH-]C(=O)[C@@H](N)Cc1c[nH]c2ccccc12 (protonated)
[NH-]C(=O)[C@@H](N)Cc1c[nH]c2ccccc12 (3D coordinates assigned)
[NH-]C(=O)[C@@H](N)Cc1c[nH]c2ccccc12 (optimized conformer: 55.89090914537595 kcal/mol)

$$$$
untitled_line_5
     RDKit          3D

 27 28  0  0  0  0  0  0  0  0999 V2000
   -3.0606   -1.1754    2.3421 N   0  0  0  0  0  2  0  0  0  0  0  0
   -2.3794    0.0756    2.4095 C   0  0  0  0  0  0  0  0  0  0  0  0
   -2.8231    0.9778    3.1688 O   0  0  0  0  0  0  0  0  0  0  0  0
   -1.1203    0.3074    1.6097 C   0  0  1  0  0  0  0  0  0  0  0  0
   -1.2099    1.5526    0.8413 N   0  0  0  0  0  0  0  0  0  0  0  0
    0.1025    0.3334    2.5415 C   0  0  0  0  0  0  0  0  0  0  0  0
    1.3805    0.4311    1.7601 C   0  0  0  0  0  0  0  0  0  0  0  0
    2.0914    1.5925    1.4729 C   0  0  0  0  0  0  0  0  0  0  0  0
    3.1578    1.3113    0.6895 N   0  0  0  0  0  0  0  0  0  0  0  0
    3.1192   -0.0149    0.4711 C   0  0  0  0  0  0  0  0  0  0  0  0
    4.0035   -0.7712   -0.2969 C   0  0  0  0  0  0  0  0  0  0  0  0
    3.7627   -2.1531   -0.4069 C   0  0  0  0  0  0  0  0  0  0  0  0
    2.6542   -2.7406    0.2429 C   0  0  0  0  0  0  0  0  0  0  0  0
    1.7773   -1.9521    1.0100 C   0  0  0  0  0  0  0  0  0  0  0  0
    2.0452   -0.5863    1.1042 C   0  0  0  0  0  0  0  0  0  0  0  0
   -2.7139   -1.9546    1.7398 H   0  0  0  0  0  0  0  0  0  0  0  0
   -0.9946   -0.5337    0.8919 H   0  0  0  0  0  0  0  0  0  0  0  0
   -2.0381    1.4953    0.2046 H   0  0  0  0  0  0  0  0  0  0  0  0
   -1.3666    2.3579    1.4909 H   0  0  0  0  0  0  0  0  0  0  0  0
    0.0311    1.1939    3.2426 H   0  0  0  0  0  0  0  0  0  0  0  0
    0.1277   -0.5952    3.1526 H   0  0  0  0  0  0  0  0  0  0  0  0
    1.8351    2.5887    1.8093 H   0  0  0  0  0  0  0  0  0  0  0  0
    3.8586    1.9916    0.3199 H   0  0  0  0  0  0  0  0  0  0  0  0
    4.8469   -0.3112   -0.7955 H   0  0  0  0  0  0  0  0  0  0  0  0
    4.4296   -2.7695   -0.9956 H   0  0  0  0  0  0  0  0  0  0  0  0
    2.4774   -3.8041    0.1488 H   0  0  0  0  0  0  0  0  0  0  0  0
    0.9241   -2.3947    1.5075 H   0  0  0  0  0  0  0  0  0  0  0  0
  1  2  1  0
  2  3  2  0
  2  4  1  0
  4  5  1  0
  4  6  1  0
  6  7  1  0
  7  8  2  0
  8  9  1  0
  9 10  1  0
 10 11  2  0
 11 12  1  0
 12 13  2  0
 13 14  1  0
 14 15  2  0
 15  7  1  0
 15 10  1  0
  1 16  1  0
  4 17  1  6
  5 18  1  0
  5 19  1  0
  6 20  1  0
  6 21  1  0
  8 22  1  0
  9 23  1  0
 11 24  1  0
 12 25  1  0
 13 26  1  0
 14 27  1  0
M  CHG  1   1  -1
M  END
>  <UniqueID>  (6) 
5

>  <SMILES>  (6) 
[NH-]C(=O)[C@@H](N)Cc1c[nH]c2ccccc12

>  <Energy>  (6) 
56.048854045971304

>  <Genealogy>  (6) 
[NH-]C(=O)C(N)Cc1c[nH]c2ccccc12 (protonated)
[NH-]C(=O)[C@@H](N)Cc1c[nH]c2ccccc12 (chirality)
[NH-]C(=O)[C@@H](N)Cc1c[nH]c2ccccc12 (3D coordinates assigned)
[NH-]C(=O)[C@@H](N)Cc1c[nH]c2ccccc12 (optimized conformer: 56.048854045971304 kcal/mol)

$$$$
untitled_line_6
     RDKit          3D

 27 28  0  0  0  0  0  0  0  0999 V2000
   -2.3271    1.9323    0.5330 N   0  0  0  0  0  2  0  0  0  0  0  0
   -2.6927    0.6561    0.0142 C   0  0  0  0  0  0  0  0  0  0  0  0
   -3.5131    0.5810   -0.9398 O   0  0  0  0  0  0  0  0  0  0  0  0
   -2.0796   -0.5947    0.5943 C   0  0  1  0  0  0  0  0  0  0  0  0
   -3.1195   -1.5103    1.0687 N   0  0  0  0  0  0  0  0  0  0  0  0
   -1.1844   -1.3093   -0.4331 C   0  0  0  0  0  0  0  0  0  0  0  0
   -0.0033   -0.4656   -0.8205 C   0  0  0  0  0  0  0  0  0  0  0  0
    0.1004    0.3510   -1.9428 C   0  0  0  0  0  0  0  0  0  0  0  0
    1.2760    1.0201   -1.9325 N   0  0  0  0  0  0  0  0  0  0  0  0
    1.9094    0.6412   -0.8088 C   0  0  0  0  0  0  0  0  0  0  0  0
    3.1520    1.0774   -0.3509 C   0  0  0  0  0  0  0  0  0  0  0  0
    3.6207    0.5611    0.8712 C   0  0  0  0  0  0  0  0  0  0  0  0
    2.8443   -0.3664    1.6013 C   0  0  0  0  0  0  0  0  0  0  0  0
    1.5929   -0.7872    1.1156 C   0  0  0  0  0  0  0  0  0  0  0  0
    1.1575   -0.2614   -0.1010 C   0  0  0  0  0  0  0  0  0  0  0  0
   -2.7332    2.8084    0.1362 H   0  0  0  0  0  0  0  0  0  0  0  0
   -1.4499   -0.3128    1.4680 H   0  0  0  0  0  0  0  0  0  0  0  0
   -3.7609   -1.7536    0.2783 H   0  0  0  0  0  0  0  0  0  0  0  0
   -3.6902   -1.0216    1.7970 H   0  0  0  0  0  0  0  0  0  0  0  0
   -0.8136   -2.2625    0.0021 H   0  0  0  0  0  0  0  0  0  0  0  0
   -1.7725   -1.5668   -1.3412 H   0  0  0  0  0  0  0  0  0  0  0  0
   -0.6492    0.4591   -2.7159 H   0  0  0  0  0  0  0  0  0  0  0  0
    1.6127    1.7030   -2.6471 H   0  0  0  0  0  0  0  0  0  0  0  0
    3.7370    1.7925   -0.9146 H   0  0  0  0  0  0  0  0  0  0  0  0
    4.5811    0.8787    1.2556 H   0  0  0  0  0  0  0  0  0  0  0  0
    3.2138   -0.7548    2.5414 H   0  0  0  0  0  0  0  0  0  0  0  0
    0.9913   -1.4948    1.6711 H   0  0  0  0  0  0  0  0  0  0  0  0
  1  2  1  0
  2  3  2  0
  2  4  1  0
  4  5  1  0
  4  6  1  0
  6  7  1  0
  7  8  2  0
  8  9  1  0
  9 10  1  0
 10 11  2  0
 11 12  1  0
 12 13  2  0
 13 14  1  0
 14 15  2  0
 15  7  1  0
 15 10  1  0
  1 16  1  0
  4 17  1  1
  5 18  1  0
  5 19  1  0
  6 20  1  0
  6 21  1  0
  8 22  1  0
  9 23  1  0
 11 24  1  0
 12 25  1  0
 13 26  1  0
 14 27  1  0
M  CHG  1   1  -1
M  END
>  <UniqueID>  (7) 
6

>  <SMILES>  (7) 
[NH-]C(=O)[C@@H](N)Cc1c[nH]c2ccccc12

>  <Energy>  (7) 
55.89090914537595

>  <Genealogy>  (7) 
[NH-]C(=O)[C@@H](N)Cc1c[nH]c2ccccc12 (protonated)
[NH-]C(=O)[C@@H](N)Cc1c[nH]c2ccccc12 (3D coordinates assigned)
[NH-]C(=O)[C@@H](N)Cc1c[nH]c2ccccc12 (optimized conformer: 55.89090914537595 kcal/mol)

$$$$
untitled_line_7
     RDKit          3D

 30 31  0  0  0  0  0  0  0  0999 V2000
    3.1077    0.8662   -0.4050 N   0  0  0  0  0  4  0  0  0  0  0  0
    1.8494    0.2168   -0.0084 C   0  0  2  0  0  0  0  0  0  0  0  0
    2.1291   -1.0617    0.8171 C   0  0  0  0  0  0  0  0  0  0  0  0
    2.8013   -0.7483    2.1185 C   0  0  0  0  0  0  0  0  0  0  0  0
    2.1367   -0.2707    3.0754 O   0  0  0  0  0  0  0  0  0  0  0  0
    4.1672   -0.9551    2.2648 O   0  0  0  0  0  1  0  0  0  0  0  0
    1.0117   -0.1084   -1.2664 C   0  0  0  0  0  0  0  0  0  0  0  0
   -0.3860   -0.5381   -0.9216 C   0  0  0  0  0  0  0  0  0  0  0  0
   -0.8786   -1.8399   -0.9180 C   0  0  0  0  0  0  0  0  0  0  0  0
   -2.1690   -1.8550   -0.5127 N   0  0  0  0  0  0  0  0  0  0  0  0
   -2.4931   -0.5756   -0.2563 C   0  0  0  0  0  0  0  0  0  0  0  0
   -3.7180   -0.0887    0.1980 C   0  0  0  0  0  0  0  0  0  0  0  0
   -3.8369    1.2972    0.4099 C   0  0  0  0  0  0  0  0  0  0  0  0
   -2.7413    2.1552    0.1665 C   0  0  0  0  0  0  0  0  0  0  0  0
   -1.5167    1.6355   -0.2910 C   0  0  0  0  0  0  0  0  0  0  0  0
   -1.4298    0.2578   -0.4924 C   0  0  0  0  0  0  0  0  0  0  0  0
    3.6925    0.2144   -0.9776 H   0  0  0  0  0  0  0  0  0  0  0  0
    3.6467    1.1618    0.4405 H   0  0  0  0  0  0  0  0  0  0  0  0
    2.9048    1.7256   -0.9657 H   0  0  0  0  0  0  0  0  0  0  0  0
    1.2705    0.9292    0.6231 H   0  0  0  0  0  0  0  0  0  0  0  0
    2.7641   -1.7610    0.2310 H   0  0  0  0  0  0  0  0  0  0  0  0
    1.1774   -1.5864    1.0457 H   0  0  0  0  0  0  0  0  0  0  0  0
    1.5128   -0.9033   -1.8609 H   0  0  0  0  0  0  0  0  0  0  0  0
    0.9430    0.7923   -1.9138 H   0  0  0  0  0  0  0  0  0  0  0  0
   -0.3198   -2.7267   -1.1873 H   0  0  0  0  0  0  0  0  0  0  0  0
   -2.7830   -2.6937   -0.4128 H   0  0  0  0  0  0  0  0  0  0  0  0
   -4.5512   -0.7542    0.3835 H   0  0  0  0  0  0  0  0  0  0  0  0
   -4.7739    1.7083    0.7623 H   0  0  0  0  0  0  0  0  0  0  0  0
   -2.8443    3.2195    0.3333 H   0  0  0  0  0  0  0  0  0  0  0  0
   -0.6732    2.2869   -0.4798 H   0  0  0  0  0  0  0  0  0  0  0  0
  1  2  1  0
  2  3  1  0
  3  4  1  0
  4  5  2  0
  4  6  1  0
  2  7  1  0
  7  8  1  0
  8  9  2  0
  9 10  1  0
 10 11  1  0
 11 12  2  0
 12 13  1  0
 13 14  2  0
 14 15  1  0
 15 16  2  0
 16  8  1  0
 16 11  1  0
  1 17  1  0
  1 18  1  0
  1 19  1  0
  2 20  1  1
  3 21  1  0
  3 22  1  0
  7 23  1  0
  7 24  1  0
  9 25  1  0
 10 26  1  0
 12 27  1  0
 13 28  1  0
 14 29  1  0
 15 30  1  0
M  CHG  2   1   1   6  -1
M  END
>  <UniqueID>  (8) 
7

>  <SMILES>  (8) 
[NH3+][C@H](CC(=O)[O-])Cc1c[nH]c2ccccc12

>  <Energy>  (8) 
58.25805157846289

>  <Genealogy>  (8) 
[NH3+][C@H](CC(=O)[O-])Cc1c[nH]c2ccccc12 (protonated)
[NH3+][C@H](CC(=O)[O-])Cc1c[nH]c2ccccc12 (3D coordinates assigned)
[NH3+][C@H](CC(=O)[O-])Cc1c[nH]c2ccccc12 (optimized conformer: 58.25805157846289 kcal/mol)

$$$$
untitled_line_8
     RDKit          3D

 27 28  0  0  0  0  0  0  0  0999 V2000
   -1.3377   -1.5187   -2.2639 N   0  0  0  0  0  2  0  0  0  0  0  0
   -1.8424   -0.7501   -1.1738 C   0  0  0  0  0  0  0  0  0  0  0  0
   -2.1398    0.4618   -1.3480 O   0  0  0  0  0  0  0  0  0  0  0  0
   -1.9859   -1.3712    0.1903 C   0  0  1  0  0  0  0  0  0  0  0  0
   -2.6685   -2.6606    0.0733 N   0  0  0  0  0  0  0  0  0  0  0  0
   -0.6072   -1.5665    0.8481 C   0  0  0  0  0  0  0  0  0  0  0  0
    0.0657   -0.2520    1.1277 C   0  0  0  0  0  0  0  0  0  0  0  0
   -0.1978    0.5973    2.1984 C   0  0  0  0  0  0  0  0  0  0  0  0
    0.5375    1.7279    2.0967 N   0  0  0  0  0  0  0  0  0  0  0  0
    1.2544    1.6047    0.9662 C   0  0  0  0  0  0  0  0  0  0  0  0
    2.1479    2.5300    0.4284 C   0  0  0  0  0  0  0  0  0  0  0  0
    2.7813    2.2042   -0.7848 C   0  0  0  0  0  0  0  0  0  0  0  0
    2.5087    0.9761   -1.4271 C   0  0  0  0  0  0  0  0  0  0  0  0
    1.6013    0.0618   -0.8618 C   0  0  0  0  0  0  0  0  0  0  0  0
    0.9909    0.4109    0.3437 C   0  0  0  0  0  0  0  0  0  0  0  0
   -1.2164   -1.0922   -3.2091 H   0  0  0  0  0  0  0  0  0  0  0  0
   -2.5998   -0.6996    0.8348 H   0  0  0  0  0  0  0  0  0  0  0  0
   -2.8337   -3.0357    1.0359 H   0  0  0  0  0  0  0  0  0  0  0  0
   -3.6177   -2.4947   -0.3351 H   0  0  0  0  0  0  0  0  0  0  0  0
   -0.7328   -2.1024    1.8138 H   0  0  0  0  0  0  0  0  0  0  0  0
    0.0409   -2.1998    0.2045 H   0  0  0  0  0  0  0  0  0  0  0  0
   -0.8990    0.4030    2.9995 H   0  0  0  0  0  0  0  0  0  0  0  0
    0.5345    2.5367    2.7572 H   0  0  0  0  0  0  0  0  0  0  0  0
    2.3465    3.4708    0.9254 H   0  0  0  0  0  0  0  0  0  0  0  0
    3.4802    2.9003   -1.2298 H   0  0  0  0  0  0  0  0  0  0  0  0
    3.0004    0.7370   -2.3610 H   0  0  0  0  0  0  0  0  0  0  0  0
    1.3886   -0.8790   -1.3515 H   0  0  0  0  0  0  0  0  0  0  0  0
  1  2  1  0
  2  3  2  0
  2  4  1  0
  4  5  1  0
  4  6  1  0
  6  7  1  0
  7  8  2  0
  8  9  1  0
  9 10  1  0
 10 11  2  0
 11 12  1  0
 12 13  2  0
 13 14  1  0
 14 15  2  0
 15  7  1  0
 15 10  1  0
  1 16  1  0
  4 17  1  1
  5 18  1  0
  5 19  1  0
  6 20  1  0
  6 21  1  0
  8 22  1  0
  9 23  1  0
 11 24  1  0
 12 25  1  0
 13 26  1  0
 14 27  1  0
M  CHG  1   1  -1
M  END
>  <UniqueID>  (9) 
8

>  <SMILES>  (9) 
[NH-]C(=O)[C@@H](N)Cc1c[nH]c2ccccc12

>  <Energy>  (9) 
55.2674956139453

>  <Genealogy>  (9) 
[NH-]C(=O)C(N)Cc1c[nH]c2ccccc12 (protonated)
[NH-]C(=O)[C@@H](N)Cc1c[nH]c2ccccc12 (chirality)
[NH-]C(=O)[C@@H](N)Cc1c[nH]c2ccccc12 (3D coordinates assigned)
[NH-]C(=O)[C@@H](N)Cc1c[nH]c2ccccc12 (optimized conformer: 55.2674956139453 kcal/mol)

$$$$
untitled_line_9
     RDKit          3D

 37 38  0  0  0  0  0  0  0  0999 V2000
   -2.2942    0.2156   -0.3866 C   0  0  0  0  0  0  0  0  0  0  0  0
   -2.0496   -1.0183   -1.2660 C   0  0  2  0  0  0  0  0  0  0  0  0
   -2.5692   -2.3147   -0.6145 C   0  0  0  0  0  0  0  0  0  0  0  0
   -1.7823   -2.6927    0.9908 S   0  0  0  0  0  0  0  0  0  0  0  0
   -0.6008   -1.1297   -1.6640 C   0  0  0  0  0  0  0  0  0  0  0  0
   -0.3014   -1.3425   -2.8703 O   0  0  0  0  0  0  0  0  0  0  0  0
    0.4307   -1.0045   -0.6789 N   0  0  0  0  0  2  0  0  0  0  0  0
    1.8582   -0.9936   -0.9896 C   0  0  1  0  0  0  0  0  0  0  0  0
    2.6607   -0.5938    0.2565 C   0  0  0  0  0  0  0  0  0  0  0  0
    2.2438    0.7588    0.7584 C   0  0  0  0  0  0  0  0  0  0  0  0
    2.6713    1.9900    0.2707 C   0  0  0  0  0  0  0  0  0  0  0  0
    2.0022    2.9965    0.8781 N   0  0  0  0  0  0  0  0  0  0  0  0
    1.1465    2.4111    1.7340 C   0  0  0  0  0  0  0  0  0  0  0  0
    0.2170    3.0395    2.5617 C   0  0  0  0  0  0  0  0  0  0  0  0
   -0.6093    2.2264    3.3590 C   0  0  0  0  0  0  0  0  0  0  0  0
   -0.4913    0.8197    3.3100 C   0  0  0  0  0  0  0  0  0  0  0  0
    0.4546    0.2131    2.4640 C   0  0  0  0  0  0  0  0  0  0  0  0
    1.2618    1.0454    1.6874 C   0  0  0  0  0  0  0  0  0  0  0  0
    2.2924   -2.3507   -1.4627 C   0  0  0  0  0  0  0  0  0  0  0  0
    2.9956   -2.4632   -2.5011 O   0  0  0  0  0  0  0  0  0  0  0  0
    1.9488   -3.4873   -0.7406 O   0  0  0  0  0  1  0  0  0  0  0  0
   -1.7305    0.1516    0.5664 H   0  0  0  0  0  0  0  0  0  0  0  0
   -1.9734    1.1340   -0.9235 H   0  0  0  0  0  0  0  0  0  0  0  0
   -3.3762    0.3096   -0.1536 H   0  0  0  0  0  0  0  0  0  0  0  0
   -2.6438   -0.8669   -2.1952 H   0  0  0  0  0  0  0  0  0  0  0  0
   -2.4128   -3.1714   -1.3051 H   0  0  0  0  0  0  0  0  0  0  0  0
   -3.6633   -2.2223   -0.4457 H   0  0  0  0  0  0  0  0  0  0  0  0
   -0.6570   -3.2913    0.3949 H   0  0  0  0  0  0  0  0  0  0  0  0
    2.0475   -0.2437   -1.7907 H   0  0  0  0  0  0  0  0  0  0  0  0
    3.7438   -0.5641    0.0064 H   0  0  0  0  0  0  0  0  0  0  0  0
    2.5225   -1.3482    1.0614 H   0  0  0  0  0  0  0  0  0  0  0  0
    3.4143    2.1385   -0.5021 H   0  0  0  0  0  0  0  0  0  0  0  0
    2.1135    4.0190    0.6977 H   0  0  0  0  0  0  0  0  0  0  0  0
    0.1282    4.1178    2.5865 H   0  0  0  0  0  0  0  0  0  0  0  0
   -1.3431    2.6819    4.0111 H   0  0  0  0  0  0  0  0  0  0  0  0
   -1.1360    0.2039    3.9233 H   0  0  0  0  0  0  0  0  0  0  0  0
    0.5423   -0.8642    2.4157 H   0  0  0  0  0  0  0  0  0  0  0  0
  1  2  1  0
  2  3  1  0
  3  4  1  0
  2  5  1  0
  5  6  2  0
  5  7  1  0
  7  8  1  0
  8  9  1  0
  9 10  1  0
 10 11  2  0
 11 12  1  0
 12 13  1  0
 13 14  2  0
 14 15  1  0
 15 16  2  0
 16 17  1  0
 17 18  2  0
  8 19  1  0
 19 20  2  0
 19 21  1  0
 18 10  1  0
 18 13  1  0
  1 22  1  0
  1 23  1  0
  1 24  1  0
  2 25  1  6
  3 26  1  0
  3 27  1  0
  4 28  1  0
  8 29  1  6
  9 30  1  0
  9 31  1  0
 11 32  1  0
 12 33  1  0
 14 34  1  0
 15 35  1  0
 16 36  1  0
 17 37  1  0
M  CHG  2   7  -1  21  -1
M  END
>  <UniqueID>  (10) 
9

>  <SMILES>  (10) 
C[C@H](CS)C(=O)[N-][C@@H](Cc1c[nH]c2ccccc12)C(=O)[O-]

>  <Energy>  (10) 
58.324520055412755

>  <Genealogy>  (10) 
C[C@H](CS)C(=O)[N-][C@@H](Cc1c[nH]c2ccccc12)C(=O)[O-] (protonated)
C[C@H](CS)C(=O)[N-][C@@H](Cc1c[nH]c2ccccc12)C(=O)[O-] (3D coordinates assigned)
C[C@H](CS)C(=O)[N-][C@@H](Cc1c[nH]c2ccccc12)C(=O)[O-] (optimized conformer: 58.324520055412755 kcal/mol)

$$$$
untitled_line_10
     RDKit          3D

 29 30  0  0  0  0  0  0  0  0999 V2000
   -2.2365    3.7911    0.4618 O   0  0  0  0  0  0  0  0  0  0  0  0
   -1.3695    3.0416   -0.0622 C   0  0  0  0  0  0  0  0  0  0  0  0
   -0.5935    3.5205   -1.1113 O   0  0  0  0  0  1  0  0  0  0  0  0
   -1.1591    1.7121    0.4415 N   0  0  0  0  0  4  0  0  0  0  0  0
    0.0178    1.6636    1.3350 C   0  0  2  0  0  0  0  0  0  0  0  0
    0.3359    0.2139    1.7589 C   0  0  0  0  0  0  0  0  0  0  0  0
    0.8197   -0.6161    0.6040 C   0  0  0  0  0  0  0  0  0  0  0  0
    2.0959   -0.5931    0.0492 C   0  0  0  0  0  0  0  0  0  0  0  0
    2.1657   -1.4307   -1.0103 N   0  0  0  0  0  0  0  0  0  0  0  0
    0.9430   -1.9757   -1.1346 C   0  0  0  0  0  0  0  0  0  0  0  0
    0.5207   -2.8909   -2.0979 C   0  0  0  0  0  0  0  0  0  0  0  0
   -0.8184   -3.3202   -2.0547 C   0  0  0  0  0  0  0  0  0  0  0  0
   -1.6960   -2.8284   -1.0632 C   0  0  0  0  0  0  0  0  0  0  0  0
   -1.2426   -1.9043   -0.1043 C   0  0  0  0  0  0  0  0  0  0  0  0
    0.0919   -1.5009   -0.1692 C   0  0  0  0  0  0  0  0  0  0  0  0
   -0.2108    2.4954    2.5740 C   0  0  0  0  0  0  0  0  0  0  0  0
    0.5780    3.4345    2.8598 O   0  0  0  0  0  0  0  0  0  0  0  0
   -1.2870    2.2260    3.4113 O   0  0  0  0  0  1  0  0  0  0  0  0
   -2.0172    1.3820    0.9433 H   0  0  0  0  0  0  0  0  0  0  0  0
   -1.0065    1.0911   -0.3854 H   0  0  0  0  0  0  0  0  0  0  0  0
    0.9088    2.0661    0.7973 H   0  0  0  0  0  0  0  0  0  0  0  0
   -0.5598   -0.2574    2.2176 H   0  0  0  0  0  0  0  0  0  0  0  0
    1.1356    0.2206    2.5321 H   0  0  0  0  0  0  0  0  0  0  0  0
    2.9238    0.0109    0.3972 H   0  0  0  0  0  0  0  0  0  0  0  0
    2.9993   -1.6064   -1.6142 H   0  0  0  0  0  0  0  0  0  0  0  0
    1.1991   -3.2579   -2.8571 H   0  0  0  0  0  0  0  0  0  0  0  0
   -1.1789   -4.0297   -2.7880 H   0  0  0  0  0  0  0  0  0  0  0  0
   -2.7250   -3.1629   -1.0422 H   0  0  0  0  0  0  0  0  0  0  0  0
   -1.9132   -1.5199    0.6527 H   0  0  0  0  0  0  0  0  0  0  0  0
  1  2  2  0
  2  3  1  0
  2  4  1  0
  4  5  1  0
  5  6  1  0
  6  7  1  0
  7  8  2  0
  8  9  1  0
  9 10  1  0
 10 11  2  0
 11 12  1  0
 12 13  2  0
 13 14  1  0
 14 15  2  0
  5 16  1  0
 16 17  2  0
 16 18  1  0
 15  7  1  0
 15 10  1  0
  4 19  1  0
  4 20  1  0
  5 21  1  6
  6 22  1  0
  6 23  1  0
  8 24  1  0
  9 25  1  0
 11 26  1  0
 12 27  1  0
 13 28  1  0
 14 29  1  0
M  CHG  3   3  -1   4   1  18  -1
M  END
>  <UniqueID>  (11) 
10

>  <SMILES>  (11) 
O=C([O-])[NH2+][C@H](Cc1c[nH]c2ccccc12)C(=O)[O-]

>  <Energy>  (11) 
60.968284529411314

>  <Genealogy>  (11) 
O=C([O-])[NH2+]C(Cc1c[nH]c2ccccc12)C(=O)[O-] (protonated)
O=C([O-])[NH2+][C@H](Cc1c[nH]c2ccccc12)C(=O)[O-] (chirality)
O=C([O-])[NH2+][C@H](Cc1c[nH]c2ccccc12)C(=O)[O-] (3D coordinates assigned)
O=C([O-])[NH2+][C@H](Cc1c[nH]c2ccccc12)C(=O)[O-] (optimized conformer: 60.968284529411314 kcal/mol)

$$$$
untitled_line_11
     RDKit          3D

 38 40  0  0  0  0  0  0  0  0999 V2000
   -2.0966   -1.4406   -0.8806 O   0  0  0  0  0  0  0  0  0  0  0  0
   -1.1299   -0.9144   -0.2678 C   0  0  0  0  0  0  0  0  0  0  0  0
   -0.4354   -1.6543    0.6810 O   0  0  0  0  0  1  0  0  0  0  0  0
   -0.6984    0.4908   -0.5867 C   0  0  1  0  0  0  0  0  0  0  0  0
    0.0501    0.5356   -1.9272 C   0  0  0  0  0  0  0  0  0  0  0  0
    1.3482   -0.2180   -1.8637 C   0  0  0  0  0  0  0  0  0  0  0  0
    1.5769   -1.5169   -2.3080 C   0  0  0  0  0  0  0  0  0  0  0  0
    2.8428   -1.8976   -2.0208 N   0  0  0  0  0  0  0  0  0  0  0  0
    3.4105   -0.8548   -1.3898 C   0  0  0  0  0  0  0  0  0  0  0  0
    4.7059   -0.7786   -0.8799 C   0  0  0  0  0  0  0  0  0  0  0  0
    5.0887    0.4106   -0.2324 C   0  0  0  0  0  0  0  0  0  0  0  0
    4.1776    1.4831   -0.1077 C   0  0  0  0  0  0  0  0  0  0  0  0
    2.8759    1.3772   -0.6305 C   0  0  0  0  0  0  0  0  0  0  0  0
    2.5276    0.1878   -1.2711 C   0  0  0  0  0  0  0  0  0  0  0  0
   -1.8746    1.3627   -0.6721 N   0  0  0  0  0  2  0  0  0  0  0  0
   -2.2380    2.0833    0.8693 S   0  0  0  0  0  6  0  0  0  0  0  0
   -1.1365    3.0334    1.2502 O   0  0  0  0  0  0  0  0  0  0  0  0
   -3.5192    2.8605    0.7597 O   0  0  0  0  0  0  0  0  0  0  0  0
   -2.4235    0.8429    2.1070 C   0  0  0  0  0  0  0  0  0  0  0  0
   -3.5836    0.0561    2.1366 C   0  0  0  0  0  0  0  0  0  0  0  0
   -3.7249   -0.9512    3.0961 C   0  0  0  0  0  0  0  0  0  0  0  0
   -2.7077   -1.1787    4.0275 C   0  0  0  0  0  0  0  0  0  0  0  0
   -1.5473   -0.3997    3.9994 C   0  0  0  0  0  0  0  0  0  0  0  0
   -1.4031    0.6085    3.0411 C   0  0  0  0  0  0  0  0  0  0  0  0
   -0.0006    0.8475    0.2047 H   0  0  0  0  0  0  0  0  0  0  0  0
   -0.5875    0.1177   -2.7373 H   0  0  0  0  0  0  0  0  0  0  0  0
    0.2681    1.5934   -2.1903 H   0  0  0  0  0  0  0  0  0  0  0  0
    0.8522   -2.1521   -2.8006 H   0  0  0  0  0  0  0  0  0  0  0  0
    3.2812   -2.8211   -2.2336 H   0  0  0  0  0  0  0  0  0  0  0  0
    5.3949   -1.6078   -0.9751 H   0  0  0  0  0  0  0  0  0  0  0  0
    6.0869    0.5029    0.1752 H   0  0  0  0  0  0  0  0  0  0  0  0
    4.4822    2.3918    0.3949 H   0  0  0  0  0  0  0  0  0  0  0  0
    2.1714    2.1933   -0.5354 H   0  0  0  0  0  0  0  0  0  0  0  0
   -4.3727    0.2178    1.4132 H   0  0  0  0  0  0  0  0  0  0  0  0
   -4.6212   -1.5576    3.1155 H   0  0  0  0  0  0  0  0  0  0  0  0
   -2.8173   -1.9598    4.7686 H   0  0  0  0  0  0  0  0  0  0  0  0
   -0.7579   -0.5797    4.7177 H   0  0  0  0  0  0  0  0  0  0  0  0
   -0.4944    1.1960    3.0231 H   0  0  0  0  0  0  0  0  0  0  0  0
  1  2  2  0
  2  3  1  0
  2  4  1  0
  4  5  1  0
  5  6  1  0
  6  7  2  0
  7  8  1  0
  8  9  1  0
  9 10  2  0
 10 11  1  0
 11 12  2  0
 12 13  1  0
 13 14  2  0
  4 15  1  0
 15 16  1  0
 16 17  2  0
 16 18  2  0
 16 19  1  0
 19 20  2  0
 20 21  1  0
 21 22  2  0
 22 23  1  0
 23 24  2  0
 14  6  1  0
 24 19  1  0
 14  9  1  0
  4 25  1  1
  5 26  1  0
  5 27  1  0
  7 28  1  0
  8 29  1  0
 10 30  1  0
 11 31  1  0
 12 32  1  0
 13 33  1  0
 20 34  1  0
 21 35  1  0
 22 36  1  0
 23 37  1  0
 24 38  1  0
M  CHG  2   3  -1  15  -1
M  END
>  <UniqueID>  (12) 
11

>  <SMILES>  (12) 
O=C([O-])[C@@H](Cc1c[nH]c2ccccc12)[N-]S(=O)(=O)c1ccccc1

>  <Energy>  (12) 
68.8436236187283

>  <Genealogy>  (12) 
O=C([O-])[C@@H](Cc1c[nH]c2ccccc12)[N-]S(=O)(=O)c1ccccc1 (protonated)
O=C([O-])[C@@H](Cc1c[nH]c2ccccc12)[N-]S(=O)(=O)c1ccccc1 (3D coordinates assigned)
O=C([O-])[C@@H](Cc1c[nH]c2ccccc12)[N-]S(=O)(=O)c1ccccc1 (optimized conformer: 68.8436236187283 kcal/mol)

$$$$
untitled_line_12
     RDKit          3D

 29 30  0  0  0  0  0  0  0  0999 V2000
   -3.8907    0.8921   -0.9023 N   0  0  0  0  0  0  0  0  0  0  0  0
   -3.1996    0.3750    0.2143 N   0  0  0  0  0  4  0  0  0  0  0  0
   -1.8473   -0.0495   -0.1929 C   0  0  1  0  0  0  0  0  0  0  0  0
   -1.0420   -0.5115    1.0391 C   0  0  0  0  0  0  0  0  0  0  0  0
    0.3886   -0.8089    0.6895 C   0  0  0  0  0  0  0  0  0  0  0  0
    0.9349   -2.0605    0.4211 C   0  0  0  0  0  0  0  0  0  0  0  0
    2.2374   -1.9425    0.0757 N   0  0  0  0  0  0  0  0  0  0  0  0
    2.5145   -0.6274    0.1140 C   0  0  0  0  0  0  0  0  0  0  0  0
    3.7293   -0.0106   -0.1821 C   0  0  0  0  0  0  0  0  0  0  0  0
    3.7929    1.3923   -0.0941 C   0  0  0  0  0  0  0  0  0  0  0  0
    2.6534    2.1386    0.2806 C   0  0  0  0  0  0  0  0  0  0  0  0
    1.4400    1.4890    0.5719 C   0  0  0  0  0  0  0  0  0  0  0  0
    1.4093    0.0974    0.4802 C   0  0  0  0  0  0  0  0  0  0  0  0
   -1.9206   -1.1546   -1.2196 C   0  0  0  0  0  0  0  0  0  0  0  0
   -1.3712   -1.0103   -2.3434 O   0  0  0  0  0  0  0  0  0  0  0  0
   -2.5819   -2.3417   -0.9278 O   0  0  0  0  0  1  0  0  0  0  0  0
   -4.8831    1.0631   -0.6162 H   0  0  0  0  0  0  0  0  0  0  0  0
   -3.4874    1.8298   -1.1380 H   0  0  0  0  0  0  0  0  0  0  0  0
   -3.7364   -0.4405    0.5952 H   0  0  0  0  0  0  0  0  0  0  0  0
   -3.1397    1.1207    0.9491 H   0  0  0  0  0  0  0  0  0  0  0  0
   -1.3177    0.8245   -0.6389 H   0  0  0  0  0  0  0  0  0  0  0  0
   -1.0551    0.2856    1.8134 H   0  0  0  0  0  0  0  0  0  0  0  0
   -1.5122   -1.4141    1.4875 H   0  0  0  0  0  0  0  0  0  0  0  0
    0.4044   -3.0028    0.4640 H   0  0  0  0  0  0  0  0  0  0  0  0
    2.8885   -2.7174   -0.1814 H   0  0  0  0  0  0  0  0  0  0  0  0
    4.5956   -0.5905   -0.4732 H   0  0  0  0  0  0  0  0  0  0  0  0
    4.7206    1.9030   -0.3173 H   0  0  0  0  0  0  0  0  0  0  0  0
    2.7135    3.2173    0.3426 H   0  0  0  0  0  0  0  0  0  0  0  0
    0.5622    2.0544    0.8567 H   0  0  0  0  0  0  0  0  0  0  0  0
  1  2  1  0
  2  3  1  0
  3  4  1  0
  4  5  1  0
  5  6  2  0
  6  7  1  0
  7  8  1  0
  8  9  2  0
  9 10  1  0
 10 11  2  0
 11 12  1  0
 12 13  2  0
  3 14  1  0
 14 15  2  0
 14 16  1  0
 13  5  1  0
 13  8  1  0
  1 17  1  0
  1 18  1  0
  2 19  1  0
  2 20  1  0
  3 21  1  6
  4 22  1  0
  4 23  1  0
  6 24  1  0
  7 25  1  0
  9 26  1  0
 10 27  1  0
 11 28  1  0
 12 29  1  0
M  CHG  2   2   1  16  -1
M  END
>  <UniqueID>  (13) 
12

>  <SMILES>  (13) 
N[NH2+][C@@H](Cc1c[nH]c2ccccc12)C(=O)[O-]

>  <Energy>  (13) 
60.02451943282463

>  <Genealogy>  (13) 
N[NH2+]C(Cc1c[nH]c2ccccc12)C(=O)[O-] (protonated)
N[NH2+][C@@H](Cc1c[nH]c2ccccc12)C(=O)[O-] (chirality)
N[NH2+][C@@H](Cc1c[nH]c2ccccc12)C(=O)[O-] (3D coordinates assigned)
N[NH2+][C@@H](Cc1c[nH]c2ccccc12)C(=O)[O-] (optimized conformer: 60.02451943282463 kcal/mol)

$$$$
untitled_line_13
     RDKit          3D

 44 48  0  0  0  0  0  0  0  0999 V2000
   -1.0795    1.5497   -1.7929 O   0  0  0  0  0  0  0  0  0  0  0  0
   -0.8348    0.3148   -1.7599 C   0  0  0  0  0  0  0  0  0  0  0  0
   -1.2835   -0.5003   -2.7924 O   0  0  0  0  0  1  0  0  0  0  0  0
   -0.0772   -0.2796   -0.5922 C   0  0  1  0  0  0  0  0  0  0  0  0
   -1.0502   -1.1481    0.2474 C   0  0  0  0  0  0  0  0  0  0  0  0
   -2.2506   -0.3675    0.7095 C   0  0  0  0  0  0  0  0  0  0  0  0
   -2.2741    0.5772    1.7314 C   0  0  0  0  0  0  0  0  0  0  0  0
   -3.5031    1.1319    1.8340 N   0  0  0  0  0  0  0  0  0  0  0  0
   -4.2531    0.5528    0.8805 C   0  0  0  0  0  0  0  0  0  0  0  0
   -5.5906    0.8129    0.5850 C   0  0  0  0  0  0  0  0  0  0  0  0
   -6.1809    0.0996   -0.4741 C   0  0  0  0  0  0  0  0  0  0  0  0
   -5.4292   -0.8451   -1.2073 C   0  0  0  0  0  0  0  0  0  0  0  0
   -4.0807   -1.0862   -0.8879 C   0  0  0  0  0  0  0  0  0  0  0  0
   -3.5231   -0.3662    0.1698 C   0  0  0  0  0  0  0  0  0  0  0  0
    1.0997   -1.0582   -1.0770 N   0  0  0  0  0  4  0  0  0  0  0  0
    1.9194   -1.5566   -0.0012 C   0  0  0  0  0  0  0  0  0  0  0  0
    1.5869   -2.5131    0.6828 O   0  0  0  0  0  0  0  0  0  0  0  0
    3.2819   -0.9474    0.1169 C   0  0  2  0  0  0  0  0  0  0  0  0
    3.3798    0.0742    1.2631 C   0  0  1  0  0  0  0  0  0  0  0  0
    4.8303    0.5554    1.3840 C   0  0  0  0  0  0  0  0  0  0  0  0
    4.9211    1.4780    0.1698 C   0  0  0  0  0  0  0  0  0  0  0  0
    3.5033    1.3375   -0.3963 C   0  0  2  0  0  0  0  0  0  0  0  0
    2.7227    1.1986    0.7551 O   0  0  0  0  0  0  0  0  0  0  0  0
    3.3690   -0.0304   -1.0880 C   0  0  2  0  0  0  0  0  0  0  0  0
    2.0438   -0.2089   -1.7608 C   0  0  0  0  0  0  0  0  0  0  0  0
    1.8088    0.2776   -2.8574 O   0  0  0  0  0  0  0  0  0  0  0  0
    0.2732    0.5551    0.0588 H   0  0  0  0  0  0  0  0  0  0  0  0
   -1.3702   -2.0376   -0.3362 H   0  0  0  0  0  0  0  0  0  0  0  0
   -0.5468   -1.5126    1.1642 H   0  0  0  0  0  0  0  0  0  0  0  0
   -1.4336    0.8511    2.3558 H   0  0  0  0  0  0  0  0  0  0  0  0
   -3.8010    1.8701    2.5098 H   0  0  0  0  0  0  0  0  0  0  0  0
   -6.1572    1.5421    1.1495 H   0  0  0  0  0  0  0  0  0  0  0  0
   -7.2173    0.2776   -0.7299 H   0  0  0  0  0  0  0  0  0  0  0  0
   -5.8934   -1.3863   -2.0214 H   0  0  0  0  0  0  0  0  0  0  0  0
   -3.5014   -1.8072   -1.4490 H   0  0  0  0  0  0  0  0  0  0  0  0
    0.8168   -1.8501   -1.7016 H   0  0  0  0  0  0  0  0  0  0  0  0
    4.0796   -1.7231    0.1298 H   0  0  0  0  0  0  0  0  0  0  0  0
    2.9475   -0.2781    2.2244 H   0  0  0  0  0  0  0  0  0  0  0  0
    4.9688    1.1304    2.3255 H   0  0  0  0  0  0  0  0  0  0  0  0
    5.5638   -0.2791    1.3353 H   0  0  0  0  0  0  0  0  0  0  0  0
    5.7035    1.1518   -0.5499 H   0  0  0  0  0  0  0  0  0  0  0  0
    5.1079    2.5272    0.4868 H   0  0  0  0  0  0  0  0  0  0  0  0
    3.1901    2.1981   -1.0260 H   0  0  0  0  0  0  0  0  0  0  0  0
    4.2133   -0.2821   -1.7675 H   0  0  0  0  0  0  0  0  0  0  0  0
  1  2  2  0
  2  3  1  0
  2  4  1  0
  4  5  1  0
  5  6  1  0
  6  7  2  0
  7  8  1  0
  8  9  1  0
  9 10  2  0
 10 11  1  0
 11 12  2  0
 12 13  1  0
 13 14  2  0
  4 15  1  0
 15 16  1  0
 16 17  2  0
 16 18  1  0
 18 19  1  0
 19 20  1  0
 20 21  1  0
 21 22  1  0
 22 23  1  0
 22 24  1  0
 24 25  1  0
 25 26  2  0
 14  6  1  0
 25 15  1  0
 14  9  1  0
 24 18  1  0
 23 19  1  0
  4 27  1  1
  5 28  1  0
  5 29  1  0
  7 30  1  0
  8 31  1  0
 10 32  1  0
 11 33  1  0
 12 34  1  0
 13 35  1  0
 15 36  1  0
 18 37  1  6
 19 38  1  1
 20 39  1  0
 20 40  1  0
 21 41  1  0
 21 42  1  0
 22 43  1  6
 24 44  1  6
M  CHG  2   3  -1  15   1
M  END
>  <UniqueID>  (14) 
13

>  <SMILES>  (14) 
O=C([O-])[C@@H](Cc1c[nH]c2ccccc12)[NH+]1C(=O)[C@@H]2[C@H]3CC[C@H](O3)[C@@H]2C1=O

>  <Energy>  (14) 
108.75581350093532

>  <Genealogy>  (14) 
O=C([O-])[C@@H](Cc1c[nH]c2ccccc12)[NH+]1C(=O)[C@@H]2[C@H]3CC[C@H](O3)[C@@H]2C1=O (protonated)
O=C([O-])[C@@H](Cc1c[nH]c2ccccc12)[NH+]1C(=O)[C@@H]2[C@H]3CC[C@H](O3)[C@@H]2C1=O (3D coordinates assigned)
O=C([O-])[C@@H](Cc1c[nH]c2ccccc12)[NH+]1C(=O)[C@@H]2[C@H]3CC[C@H](O3)[C@@H]2C1=O (nonaromatic ring conformer: 108.75581350093532 kcal/mol)

$$$$
untitled_line_14
     RDKit          3D

 58 62  0  0  0  0  0  0  0  0999 V2000
    2.4757   -2.4628   -2.0872 H   0  0  0  0  0  0  0  0  0  0  0  0
    1.7362   -1.6711   -2.0981 C   0  0  0  0  0  0  0  0  0  0  0  0
    1.8642   -0.6889   -3.0016 C   0  0  0  0  0  0  0  0  0  0  0  0
    3.2541   -0.6418   -4.1322 S   0  0  0  0  0  0  0  0  0  0  0  0
    2.9394    1.1138   -4.3548 C   0  0  0  0  0  0  0  0  0  0  0  0
    4.1767    2.1161   -4.7338 S   0  0  0  0  0  0  0  0  0  0  0  0
    1.6936    1.5827   -3.8169 N   0  0  0  0  0  0  0  0  0  0  0  0
    1.1954    2.9717   -3.8159 C   0  0  2  0  0  0  0  0  0  0  0  0
    0.1166    2.9669   -3.5478 H   0  0  0  0  0  0  0  0  0  0  0  0
    1.2550    3.5556   -5.2041 C   0  0  0  0  0  0  0  0  0  0  0  0
    1.8668    4.6330   -5.4360 O   0  0  0  0  0  0  0  0  0  0  0  0
    0.5991    2.9098   -6.2438 O   0  0  0  0  0  1  0  0  0  0  0  0
    1.9222    3.8392   -2.7609 C   0  0  0  0  0  0  0  0  0  0  0  0
    1.3943    4.8117   -2.6595 H   0  0  0  0  0  0  0  0  0  0  0  0
    2.9595    4.0639   -3.0853 H   0  0  0  0  0  0  0  0  0  0  0  0
    1.9668    3.1750   -1.4129 C   0  0  0  0  0  0  0  0  0  0  0  0
    3.0643    2.5269   -0.8522 C   0  0  0  0  0  0  0  0  0  0  0  0
    4.0497    2.4563   -1.2950 H   0  0  0  0  0  0  0  0  0  0  0  0
    2.7257    1.9575    0.3263 N   0  0  0  0  0  0  0  0  0  0  0  0
    3.3482    1.3995    0.9516 H   0  0  0  0  0  0  0  0  0  0  0  0
    1.4214    2.2265    0.5075 C   0  0  0  0  0  0  0  0  0  0  0  0
    0.6134    1.8081    1.5621 C   0  0  0  0  0  0  0  0  0  0  0  0
    1.0191    1.2292    2.3800 H   0  0  0  0  0  0  0  0  0  0  0  0
   -0.7490    2.1531    1.5245 C   0  0  0  0  0  0  0  0  0  0  0  0
   -1.4060    1.8311    2.3216 H   0  0  0  0  0  0  0  0  0  0  0  0
   -1.2659    2.9112    0.4506 C   0  0  0  0  0  0  0  0  0  0  0  0
   -2.3172    3.1679    0.4305 H   0  0  0  0  0  0  0  0  0  0  0  0
   -0.4242    3.3318   -0.5948 C   0  0  0  0  0  0  0  0  0  0  0  0
   -0.8149    3.9084   -1.4229 H   0  0  0  0  0  0  0  0  0  0  0  0
    0.9216    2.9673   -0.5331 C   0  0  0  0  0  0  0  0  0  0  0  0
    1.0762    0.5431   -3.0647 C   0  0  0  0  0  0  0  0  0  0  0  0
   -0.0350    0.6990   -2.4918 O   0  0  0  0  0  0  0  0  0  0  0  0
    0.7015   -1.6906   -1.0404 C   0  0  0  0  0  0  0  0  0  0  0  0
   -0.6297   -1.8824   -1.4136 C   0  0  0  0  0  0  0  0  0  0  0  0
   -0.8875   -2.0240   -2.4561 H   0  0  0  0  0  0  0  0  0  0  0  0
   -1.6448   -1.8612   -0.4658 C   0  0  0  0  0  0  0  0  0  0  0  0
   -2.6578   -1.9971   -0.8159 H   0  0  0  0  0  0  0  0  0  0  0  0
   -1.3692   -1.6508    0.9020 C   0  0  0  0  0  0  0  0  0  0  0  0
   -2.4694   -1.5287    1.8571 N   0  0  0  0  0  4  0  0  0  0  0  0
   -2.1510   -1.0288    2.7158 H   0  0  0  0  0  0  0  0  0  0  0  0
   -3.5813   -0.6988    1.3492 C   0  0  0  0  0  0  0  0  0  0  0  0
   -4.2036   -1.2436    0.6072 H   0  0  0  0  0  0  0  0  0  0  0  0
   -4.2524   -0.4022    2.1865 H   0  0  0  0  0  0  0  0  0  0  0  0
   -3.1929    0.2342    0.8852 H   0  0  0  0  0  0  0  0  0  0  0  0
   -2.9522   -2.8627    2.2458 C   0  0  0  0  0  0  0  0  0  0  0  0
   -2.1247   -3.4612    2.6863 H   0  0  0  0  0  0  0  0  0  0  0  0
   -3.7517   -2.7760    3.0147 H   0  0  0  0  0  0  0  0  0  0  0  0
   -3.3598   -3.4131    1.3677 H   0  0  0  0  0  0  0  0  0  0  0  0
   -0.0005   -1.6216    1.3159 C   0  0  0  0  0  0  0  0  0  0  0  0
    0.3745   -1.6346    2.6813 C   0  0  0  0  0  0  0  0  0  0  0  0
   -0.3426   -1.7419    3.4798 H   0  0  0  0  0  0  0  0  0  0  0  0
    1.7145   -1.5501    3.0586 C   0  0  0  0  0  0  0  0  0  0  0  0
    1.9815   -1.5544    4.1078 H   0  0  0  0  0  0  0  0  0  0  0  0
    2.7110   -1.4595    2.0942 C   0  0  0  0  0  0  0  0  0  0  0  0
    3.7481   -1.3829    2.3949 H   0  0  0  0  0  0  0  0  0  0  0  0
    2.3800   -1.4898    0.7426 C   0  0  0  0  0  0  0  0  0  0  0  0
    3.1891   -1.4342    0.0263 H   0  0  0  0  0  0  0  0  0  0  0  0
    1.0338   -1.5992    0.3306 C   0  0  0  0  0  0  0  0  0  0  0  0
  1  2  1  0
  2  3  2  0
  3  4  1  0
  4  5  1  0
  5  6  2  0
  5  7  1  0
  7  8  1  0
  8  9  1  1
  8 10  1  0
 10 11  2  0
 10 12  1  0
  8 13  1  0
 13 14  1  0
 13 15  1  0
 13 16  1  0
 16 17  2  0
 17 18  1  0
 17 19  1  0
 19 20  1  0
 19 21  1  0
 21 22  2  0
 22 23  1  0
 22 24  1  0
 24 25  1  0
 24 26  2  0
 26 27  1  0
 26 28  1  0
 28 29  1  0
 28 30  2  0
  7 31  1  0
 31 32  2  0
  2 33  1  0
 33 34  2  0
 34 35  1  0
 34 36  1  0
 36 37  1  0
 36 38  2  0
 38 39  1  0
 39 40  1  0
 39 41  1  0
 41 42  1  0
 41 43  1  0
 41 44  1  0
 39 45  1  0
 45 46  1  0
 45 47  1  0
 45 48  1  0
 38 49  1  0
 49 50  2  0
 50 51  1  0
 50 52  1  0
 52 53  1  0
 52 54  2  0
 54 55  1  0
 54 56  1  0
 56 57  1  0
 56 58  2  0
 31  3  1  0
 58 33  1  0
 30 16  1  0
 58 49  1  0
 30 21  1  0
M  CHG  2  12  -1  39   1
M  END
>  <UniqueID>  (15) 
14

>  <SMILES>  (15) 
C[NH+](C)c1ccc(/C=C2\SC(=S)N([C@@H](Cc3c[nH]c4ccccc34)C(=O)[O-])C2=O)c2ccccc12

>  <Energy>  (15) 
130.55954039065816

>  <Genealogy>  (15) 
C[NH+](C)c1ccc(/C=C2\SC(=S)N([C@@H](Cc3c[nH]c4ccccc34)C(=O)[O-])C2=O)c2ccccc12 (protonated)
C[NH+](C)c1ccc(/C=C2\SC(=S)N([C@@H](Cc3c[nH]c4ccccc34)C(=O)[O-])C2=O)c2ccccc12 (cis-trans isomerization)
C[NH+](C)c1ccc(/C=C2\SC(=S)N([C@@H](Cc3c[nH]c4ccccc34)C(=O)[O-])C2=O)c2ccccc12 (3D coordinates assigned)
C[NH+](C)c1ccc(/C=C2\SC(=S)N([C@@H](Cc3c[nH]c4ccccc34)C(=O)[O-])C2=O)c2ccccc12 (nonaromatic ring conformer: 130.55954039065816 kcal/mol)

$$$$
untitled_line_15
     RDKit          3D

 33 34  0  0  0  0  0  0  0  0999 V2000
   -3.2967    0.3417    0.6567 N   0  0  0  0  0  0  0  0  0  0  0  0
   -2.7300    1.0356    1.8101 C   0  0  0  0  0  0  0  0  0  0  0  0
   -1.2304    1.0488    1.7459 C   0  0  0  0  0  0  0  0  0  0  0  0
   -0.5785    0.1548    2.3506 O   0  0  0  0  0  0  0  0  0  0  0  0
   -0.5528    2.0415    0.9603 N   0  0  0  0  0  0  0  0  0  0  0  0
    0.8977    2.0275    0.7411 C   0  0  1  0  0  0  0  0  0  0  0  0
    1.2248    1.4870   -0.6612 C   0  0  0  0  0  0  0  0  0  0  0  0
    0.7259    0.0818   -0.8361 C   0  0  0  0  0  0  0  0  0  0  0  0
   -0.4432   -0.3067   -1.4835 C   0  0  0  0  0  0  0  0  0  0  0  0
   -0.6281   -1.6411   -1.3643 N   0  0  0  0  0  0  0  0  0  0  0  0
    0.4091   -2.0965   -0.6404 C   0  0  0  0  0  0  0  0  0  0  0  0
    0.6445   -3.4093   -0.2346 C   0  0  0  0  0  0  0  0  0  0  0  0
    1.7885   -3.6614    0.5448 C   0  0  0  0  0  0  0  0  0  0  0  0
    2.6593   -2.6072    0.8999 C   0  0  0  0  0  0  0  0  0  0  0  0
    2.3949   -1.2914    0.4784 C   0  0  0  0  0  0  0  0  0  0  0  0
    1.2560   -1.0738   -0.2971 C   0  0  0  0  0  0  0  0  0  0  0  0
    1.4487    3.4149    0.9063 C   0  0  0  0  0  0  0  0  0  0  0  0
    1.0035    4.3673    0.2118 O   0  0  0  0  0  0  0  0  0  0  0  0
    2.4672    3.6528    1.8208 O   0  0  0  0  0  1  0  0  0  0  0  0
   -2.9007   -0.6261    0.6160 H   0  0  0  0  0  0  0  0  0  0  0  0
   -3.0039    0.8420   -0.2141 H   0  0  0  0  0  0  0  0  0  0  0  0
   -3.0633    0.5294    2.7419 H   0  0  0  0  0  0  0  0  0  0  0  0
   -3.1127    2.0784    1.8385 H   0  0  0  0  0  0  0  0  0  0  0  0
   -1.1326    2.7206    0.4162 H   0  0  0  0  0  0  0  0  0  0  0  0
    1.3939    1.3795    1.4966 H   0  0  0  0  0  0  0  0  0  0  0  0
    2.3253    1.4977   -0.8189 H   0  0  0  0  0  0  0  0  0  0  0  0
    0.7655    2.1384   -1.4370 H   0  0  0  0  0  0  0  0  0  0  0  0
   -1.1300    0.3544   -1.9956 H   0  0  0  0  0  0  0  0  0  0  0  0
   -1.4266   -2.1975   -1.7427 H   0  0  0  0  0  0  0  0  0  0  0  0
   -0.0321   -4.2092   -0.5061 H   0  0  0  0  0  0  0  0  0  0  0  0
    2.0009   -4.6693    0.8768 H   0  0  0  0  0  0  0  0  0  0  0  0
    3.5348   -2.8126    1.5020 H   0  0  0  0  0  0  0  0  0  0  0  0
    3.0558   -0.4785    0.7495 H   0  0  0  0  0  0  0  0  0  0  0  0
  1  2  1  0
  2  3  1  0
  3  4  2  0
  3  5  1  0
  5  6  1  0
  6  7  1  0
  7  8  1  0
  8  9  2  0
  9 10  1  0
 10 11  1  0
 11 12  2  0
 12 13  1  0
 13 14  2  0
 14 15  1  0
 15 16  2  0
  6 17  1  0
 17 18  2  0
 17 19  1  0
 16  8  1  0
 16 11  1  0
  1 20  1  0
  1 21  1  0
  2 22  1  0
  2 23  1  0
  5 24  1  0
  6 25  1  1
  7 26  1  0
  7 27  1  0
  9 28  1  0
 10 29  1  0
 12 30  1  0
 13 31  1  0
 14 32  1  0
 15 33  1  0
M  CHG  1  19  -1
M  END
>  <UniqueID>  (16) 
15

>  <SMILES>  (16) 
NCC(=O)N[C@@H](Cc1c[nH]c2ccccc12)C(=O)[O-]

>  <Energy>  (16) 
57.62977919502473

>  <Genealogy>  (16) 
NCC(=O)N[C@@H](Cc1c[nH]c2ccccc12)C(=O)[O-] (protonated)
NCC(=O)N[C@@H](Cc1c[nH]c2ccccc12)C(=O)[O-] (3D coordinates assigned)
NCC(=O)N[C@@H](Cc1c[nH]c2ccccc12)C(=O)[O-] (optimized conformer: 57.62977919502473 kcal/mol)

$$$$
untitled_line_16
     RDKit          3D

 52 56  0  0  0  0  0  0  0  0999 V2000
    0.5274    2.0057    0.1741 H   0  0  0  0  0  0  0  0  0  0  0  0
    1.2936    1.3458    0.5628 C   0  0  0  0  0  0  0  0  0  0  0  0
    1.7636    0.3635   -0.2200 C   0  0  0  0  0  0  0  0  0  0  0  0
    2.9132   -0.9087    0.3215 S   0  0  0  0  0  0  0  0  0  0  0  0
    2.6240   -1.7574   -1.2351 C   0  0  0  0  0  0  0  0  0  0  0  0
    3.0702   -3.3243   -1.4097 S   0  0  0  0  0  0  0  0  0  0  0  0
    1.7657   -1.0820   -2.1652 N   0  0  0  0  0  0  0  0  0  0  0  0
    1.2601   -1.6811   -3.4185 C   0  0  2  0  0  0  0  0  0  0  0  0
    2.0315   -2.3774   -3.8123 H   0  0  0  0  0  0  0  0  0  0  0  0
    1.0925   -0.6485   -4.5085 C   0  0  0  0  0  0  0  0  0  0  0  0
    1.9527    0.2613   -4.6469 O   0  0  0  0  0  0  0  0  0  0  0  0
    0.0618   -0.7479   -5.4355 O   0  0  0  0  0  1  0  0  0  0  0  0
   -0.0104   -2.5299   -3.1655 C   0  0  0  0  0  0  0  0  0  0  0  0
   -0.4123   -2.9111   -4.1287 H   0  0  0  0  0  0  0  0  0  0  0  0
    0.2709   -3.4293   -2.5783 H   0  0  0  0  0  0  0  0  0  0  0  0
   -1.0984   -1.7948   -2.4303 C   0  0  0  0  0  0  0  0  0  0  0  0
   -2.0692   -0.9657   -2.9862 C   0  0  0  0  0  0  0  0  0  0  0  0
   -2.1933   -0.7537   -4.0392 H   0  0  0  0  0  0  0  0  0  0  0  0
   -2.8577   -0.4456   -2.0182 N   0  0  0  0  0  0  0  0  0  0  0  0
   -3.6611    0.2080   -2.1512 H   0  0  0  0  0  0  0  0  0  0  0  0
   -2.3953   -0.9376   -0.8562 C   0  0  0  0  0  0  0  0  0  0  0  0
   -2.8855   -0.6819    0.4238 C   0  0  0  0  0  0  0  0  0  0  0  0
   -3.7314   -0.0248    0.5788 H   0  0  0  0  0  0  0  0  0  0  0  0
   -2.2438   -1.3034    1.5102 C   0  0  0  0  0  0  0  0  0  0  0  0
   -2.5981   -1.1255    2.5171 H   0  0  0  0  0  0  0  0  0  0  0  0
   -1.1345   -2.1503    1.2967 C   0  0  0  0  0  0  0  0  0  0  0  0
   -0.6438   -2.6169    2.1407 H   0  0  0  0  0  0  0  0  0  0  0  0
   -0.6646   -2.3937   -0.0062 C   0  0  0  0  0  0  0  0  0  0  0  0
    0.1810   -3.0462   -0.1731 H   0  0  0  0  0  0  0  0  0  0  0  0
   -1.3231   -1.7666   -1.0653 C   0  0  0  0  0  0  0  0  0  0  0  0
    1.2846    0.1276   -1.5774 C   0  0  0  0  0  0  0  0  0  0  0  0
    0.4848    0.9035   -2.1680 O   0  0  0  0  0  0  0  0  0  0  0  0
    1.7190    1.5445    1.9682 C   0  0  0  0  0  0  0  0  0  0  0  0
    3.0819    1.7114    2.2466 C   0  0  0  0  0  0  0  0  0  0  0  0
    3.8111    1.6873    1.4458 H   0  0  0  0  0  0  0  0  0  0  0  0
    3.5246    1.9264    3.5478 C   0  0  0  0  0  0  0  0  0  0  0  0
    4.5873    2.0454    3.7203 H   0  0  0  0  0  0  0  0  0  0  0  0
    2.6183    1.9950    4.6142 C   0  0  0  0  0  0  0  0  0  0  0  0
    3.1552    2.2279    6.0047 C   0  0  0  0  0  0  0  0  0  0  0  0
    4.2631    2.3096    6.0123 H   0  0  0  0  0  0  0  0  0  0  0  0
    2.8734    1.3802    6.6641 H   0  0  0  0  0  0  0  0  0  0  0  0
    2.7418    3.1734    6.4144 H   0  0  0  0  0  0  0  0  0  0  0  0
    1.2301    1.8518    4.3584 C   0  0  0  0  0  0  0  0  0  0  0  0
    0.2798    1.9214    5.4010 C   0  0  0  0  0  0  0  0  0  0  0  0
    0.5757    2.0875    6.4279 H   0  0  0  0  0  0  0  0  0  0  0  0
   -1.0816    1.7759    5.1360 C   0  0  0  0  0  0  0  0  0  0  0  0
   -1.7982    1.8304    5.9454 H   0  0  0  0  0  0  0  0  0  0  0  0
   -1.5229    1.5592    3.8344 C   0  0  0  0  0  0  0  0  0  0  0  0
   -2.5808    1.4442    3.6357 H   0  0  0  0  0  0  0  0  0  0  0  0
   -0.6071    1.4867    2.7860 C   0  0  0  0  0  0  0  0  0  0  0  0
   -0.9951    1.3111    1.7924 H   0  0  0  0  0  0  0  0  0  0  0  0
    0.7772    1.6321    3.0241 C   0  0  0  0  0  0  0  0  0  0  0  0
  1  2  1  0
  2  3  2  0
  3  4  1  0
  4  5  1  0
  5  6  2  0
  5  7  1  0
  7  8  1  0
  8  9  1  6
  8 10  1  0
 10 11  2  0
 10 12  1  0
  8 13  1  0
 13 14  1  0
 13 15  1  0
 13 16  1  0
 16 17  2  0
 17 18  1  0
 17 19  1  0
 19 20  1  0
 19 21  1  0
 21 22  2  0
 22 23  1  0
 22 24  1  0
 24 25  1  0
 24 26  2  0
 26 27  1  0
 26 28  1  0
 28 29  1  0
 28 30  2  0
  7 31  1  0
 31 32  2  0
  2 33  1  0
 33 34  2  0
 34 35  1  0
 34 36  1  0
 36 37  1  0
 36 38  2  0
 38 39  1  0
 39 40  1  0
 39 41  1  0
 39 42  1  0
 38 43  1  0
 43 44  2  0
 44 45  1  0
 44 46  1  0
 46 47  1  0
 46 48  2  0
 48 49  1  0
 48 50  1  0
 50 51  1  0
 50 52  2  0
 31  3  1  0
 52 33  1  0
 30 16  1  0
 52 43  1  0
 30 21  1  0
M  CHG  1  12  -1
M  END
>  <UniqueID>  (17) 
16

>  <SMILES>  (17) 
Cc1ccc(/C=C2\SC(=S)N([C@@H](Cc3c[nH]c4ccccc34)C(=O)[O-])C2=O)c2ccccc12

>  <Energy>  (17) 
119.83565518706429

>  <Genealogy>  (17) 
Cc1ccc(/C=C2\SC(=S)N([C@@H](Cc3c[nH]c4ccccc34)C(=O)[O-])C2=O)c2ccccc12 (protonated)
Cc1ccc(/C=C2\SC(=S)N([C@@H](Cc3c[nH]c4ccccc34)C(=O)[O-])C2=O)c2ccccc12 (cis-trans isomerization)
Cc1ccc(/C=C2\SC(=S)N([C@@H](Cc3c[nH]c4ccccc34)C(=O)[O-])C2=O)c2ccccc12 (3D coordinates assigned)
Cc1ccc(/C=C2\SC(=S)N([C@@H](Cc3c[nH]c4ccccc34)C(=O)[O-])C2=O)c2ccccc12 (nonaromatic ring conformer: 119.83565518706429 kcal/mol)

$$$$
untitled_line_17
     RDKit          3D

 52 55  0  0  0  0  0  0  0  0999 V2000
    0.1174    1.8484   -0.3936 H   0  0  0  0  0  0  0  0  0  0  0  0
    0.6770    1.2125    0.2823 C   0  0  0  0  0  0  0  0  0  0  0  0
    1.4887    0.2758   -0.2324 C   0  0  0  0  0  0  0  0  0  0  0  0
    2.5935   -0.7711    0.7238 S   0  0  0  0  0  0  0  0  0  0  0  0
    2.8908   -1.7236   -0.7703 C   0  0  0  0  0  0  0  0  0  0  0  0
    3.4136   -3.2725   -0.6580 S   0  0  0  0  0  0  0  0  0  0  0  0
    2.3360   -1.1771   -1.9755 N   0  0  0  0  0  0  0  0  0  0  0  0
    2.3234   -1.8761   -3.2777 C   0  0  2  0  0  0  0  0  0  0  0  0
    3.2280   -2.5185   -3.3401 H   0  0  0  0  0  0  0  0  0  0  0  0
    2.4667   -0.9093   -4.4296 C   0  0  0  0  0  0  0  0  0  0  0  0
    1.9351   -1.1485   -5.5462 O   0  0  0  0  0  0  0  0  0  0  0  0
    3.2904    0.2025   -4.2985 O   0  0  0  0  0  1  0  0  0  0  0  0
    1.1005   -2.8223   -3.4011 C   0  0  0  0  0  0  0  0  0  0  0  0
    1.0923   -3.3021   -4.4035 H   0  0  0  0  0  0  0  0  0  0  0  0
    1.2094   -3.6498   -2.6690 H   0  0  0  0  0  0  0  0  0  0  0  0
   -0.2212   -2.1416   -3.1694 C   0  0  0  0  0  0  0  0  0  0  0  0
   -0.9622   -1.4213   -4.1026 C   0  0  0  0  0  0  0  0  0  0  0  0
   -0.7123   -1.2946   -5.1473 H   0  0  0  0  0  0  0  0  0  0  0  0
   -2.0483   -0.8665   -3.5179 N   0  0  0  0  0  0  0  0  0  0  0  0
   -2.7654   -0.2630   -3.9782 H   0  0  0  0  0  0  0  0  0  0  0  0
   -2.0001   -1.2271   -2.2241 C   0  0  0  0  0  0  0  0  0  0  0  0
   -2.8853   -0.8590   -1.2118 C   0  0  0  0  0  0  0  0  0  0  0  0
   -3.7409   -0.2291   -1.4180 H   0  0  0  0  0  0  0  0  0  0  0  0
   -2.6258   -1.3237    0.0904 C   0  0  0  0  0  0  0  0  0  0  0  0
   -3.2906   -1.0530    0.9002 H   0  0  0  0  0  0  0  0  0  0  0  0
   -1.5022   -2.1390    0.3480 C   0  0  0  0  0  0  0  0  0  0  0  0
   -1.3117   -2.4901    1.3537 H   0  0  0  0  0  0  0  0  0  0  0  0
   -0.6246   -2.4923   -0.6923 C   0  0  0  0  0  0  0  0  0  0  0  0
    0.2423   -3.1080   -0.4961 H   0  0  0  0  0  0  0  0  0  0  0  0
   -0.9045   -2.0129   -1.9732 C   0  0  0  0  0  0  0  0  0  0  0  0
    1.5661   -0.0162   -1.6592 C   0  0  0  0  0  0  0  0  0  0  0  0
    0.9700    0.6682   -2.5348 O   0  0  0  0  0  0  0  0  0  0  0  0
    0.5297    1.4788    1.7272 C   0  0  0  0  0  0  0  0  0  0  0  0
    0.2975    0.4404    2.6454 C   0  0  0  0  0  0  0  0  0  0  0  0
    0.2355   -0.5872    2.3128 H   0  0  0  0  0  0  0  0  0  0  0  0
    0.1188    0.7242    4.0021 C   0  0  0  0  0  0  0  0  0  0  0  0
   -0.0448   -0.0903    4.6969 H   0  0  0  0  0  0  0  0  0  0  0  0
    0.1413    2.0514    4.4573 C   0  0  0  0  0  0  0  0  0  0  0  0
   -0.0159    2.3544    5.9233 C   0  0  0  0  0  0  0  0  0  0  0  0
   -0.6822    1.5981    6.3941 H   0  0  0  0  0  0  0  0  0  0  0  0
   -0.5000    3.3477    6.0523 H   0  0  0  0  0  0  0  0  0  0  0  0
    1.3473    2.3491    6.6224 C   0  0  0  0  0  0  0  0  0  0  0  0
    1.8253    1.3520    6.5036 H   0  0  0  0  0  0  0  0  0  0  0  0
    2.0087    3.1139    6.1594 H   0  0  0  0  0  0  0  0  0  0  0  0
    1.2053    2.6545    8.1104 C   0  0  0  0  0  0  0  0  0  0  0  0
    2.2070    2.6437    8.5893 H   0  0  0  0  0  0  0  0  0  0  0  0
    0.7524    3.6583    8.2568 H   0  0  0  0  0  0  0  0  0  0  0  0
    0.5682    1.8888    8.6024 H   0  0  0  0  0  0  0  0  0  0  0  0
    0.3573    3.0898    3.5382 C   0  0  0  0  0  0  0  0  0  0  0  0
    0.3865    4.1196    3.8725 H   0  0  0  0  0  0  0  0  0  0  0  0
    0.5346    2.8055    2.1811 C   0  0  0  0  0  0  0  0  0  0  0  0
    0.6895    3.6211    1.4850 H   0  0  0  0  0  0  0  0  0  0  0  0
  1  2  1  0
  2  3  2  0
  3  4  1  0
  4  5  1  0
  5  6  2  0
  5  7  1  0
  7  8  1  0
  8  9  1  1
  8 10  1  0
 10 11  2  0
 10 12  1  0
  8 13  1  0
 13 14  1  0
 13 15  1  0
 13 16  1  0
 16 17  2  0
 17 18  1  0
 17 19  1  0
 19 20  1  0
 19 21  1  0
 21 22  2  0
 22 23  1  0
 22 24  1  0
 24 25  1  0
 24 26  2  0
 26 27  1  0
 26 28  1  0
 28 29  1  0
 28 30  2  0
  7 31  1  0
 31 32  2  0
  2 33  1  0
 33 34  2  0
 34 35  1  0
 34 36  1  0
 36 37  1  0
 36 38  2  0
 38 39  1  0
 39 40  1  0
 39 41  1  0
 39 42  1  0
 42 43  1  0
 42 44  1  0
 42 45  1  0
 45 46  1  0
 45 47  1  0
 45 48  1  0
 38 49  1  0
 49 50  1  0
 49 51  2  0
 51 52  1  0
 31  3  1  0
 51 33  1  0
 30 16  1  0
 30 21  1  0
M  CHG  1  12  -1
M  END
>  <UniqueID>  (18) 
17

>  <SMILES>  (18) 
CCCc1ccc(/C=C2\SC(=S)N([C@@H](Cc3c[nH]c4ccccc34)C(=O)[O-])C2=O)cc1

>  <Energy>  (18) 
105.7122014344282

>  <Genealogy>  (18) 
CCCc1ccc(/C=C2\SC(=S)N([C@@H](Cc3c[nH]c4ccccc34)C(=O)[O-])C2=O)cc1 (protonated)
CCCc1ccc(/C=C2\SC(=S)N([C@@H](Cc3c[nH]c4ccccc34)C(=O)[O-])C2=O)cc1 (cis-trans isomerization)
CCCc1ccc(/C=C2\SC(=S)N([C@@H](Cc3c[nH]c4ccccc34)C(=O)[O-])C2=O)cc1 (3D coordinates assigned)
CCCc1ccc(/C=C2\SC(=S)N([C@@H](Cc3c[nH]c4ccccc34)C(=O)[O-])C2=O)cc1 (nonaromatic ring conformer: 105.7122014344282 kcal/mol)

$$$$
untitled_line_18
     RDKit          3D

 42 45  0  0  0  0  0  0  0  0999 V2000
   -2.5204    1.8180    2.8865 O   0  0  0  0  0  0  0  0  0  0  0  0
   -1.2809    1.8791    2.6682 C   0  0  0  0  0  0  0  0  0  0  0  0
   -0.5589    2.9747    3.1249 O   0  0  0  0  0  1  0  0  0  0  0  0
   -0.5798    0.7768    1.9196 C   0  0  1  0  0  0  0  0  0  0  0  0
   -0.6954   -0.5397    2.7166 C   0  0  0  0  0  0  0  0  0  0  0  0
    0.1926   -1.6149    2.1570 C   0  0  0  0  0  0  0  0  0  0  0  0
   -0.2026   -2.6920    1.3689 C   0  0  0  0  0  0  0  0  0  0  0  0
    0.8724   -3.4224    0.9943 N   0  0  0  0  0  0  0  0  0  0  0  0
    1.9423   -2.8126    1.5338 C   0  0  0  0  0  0  0  0  0  0  0  0
    3.2794   -3.1890    1.4135 C   0  0  0  0  0  0  0  0  0  0  0  0
    4.2466   -2.3931    2.0543 C   0  0  0  0  0  0  0  0  0  0  0  0
    3.8603   -1.2514    2.7913 C   0  0  0  0  0  0  0  0  0  0  0  0
    2.5034   -0.8952    2.8946 C   0  0  0  0  0  0  0  0  0  0  0  0
    1.5677   -1.7043    2.2495 C   0  0  0  0  0  0  0  0  0  0  0  0
   -1.1546    0.6298    0.4867 C   0  0  0  0  0  0  0  0  0  0  0  0
   -0.9341    1.8364   -0.3429 N   0  0  0  0  0  4  0  0  0  0  0  0
    0.4040    1.8746   -0.8922 C   0  0  0  0  0  0  0  0  0  0  0  0
    1.4378    2.0610   -0.1963 O   0  0  0  0  0  0  0  0  0  0  0  0
    0.4146    1.7527   -2.3415 C   0  0  0  0  0  0  0  0  0  0  0  0
    1.4716    1.7288   -3.2507 C   0  0  0  0  0  0  0  0  0  0  0  0
    1.1615    1.6192   -4.6184 C   0  0  0  0  0  0  0  0  0  0  0  0
   -0.1838    1.5431   -5.0405 C   0  0  0  0  0  0  0  0  0  0  0  0
   -1.2270    1.5763   -4.0975 C   0  0  0  0  0  0  0  0  0  0  0  0
   -0.8855    1.6801   -2.7495 C   0  0  0  0  0  0  0  0  0  0  0  0
   -1.7138    1.7532   -1.5564 C   0  0  0  0  0  0  0  0  0  0  0  0
   -2.9741    1.7812   -1.5725 O   0  0  0  0  0  0  0  0  0  0  0  0
    0.4960    1.0398    1.8571 H   0  0  0  0  0  0  0  0  0  0  0  0
   -1.7501   -0.8928    2.7219 H   0  0  0  0  0  0  0  0  0  0  0  0
   -0.3987   -0.3642    3.7740 H   0  0  0  0  0  0  0  0  0  0  0  0
   -1.2191   -2.9190    1.0746 H   0  0  0  0  0  0  0  0  0  0  0  0
    0.8687   -4.2789    0.3970 H   0  0  0  0  0  0  0  0  0  0  0  0
    3.5659   -4.0636    0.8440 H   0  0  0  0  0  0  0  0  0  0  0  0
    5.2936   -2.6567    1.9808 H   0  0  0  0  0  0  0  0  0  0  0  0
    4.6132   -0.6463    3.2793 H   0  0  0  0  0  0  0  0  0  0  0  0
    2.2005   -0.0219    3.4575 H   0  0  0  0  0  0  0  0  0  0  0  0
   -2.2458    0.4212    0.5744 H   0  0  0  0  0  0  0  0  0  0  0  0
   -0.7051   -0.2581   -0.0138 H   0  0  0  0  0  0  0  0  0  0  0  0
   -1.1558    2.7291    0.1552 H   0  0  0  0  0  0  0  0  0  0  0  0
    2.4987    1.7929   -2.9159 H   0  0  0  0  0  0  0  0  0  0  0  0
    1.9580    1.5958   -5.3506 H   0  0  0  0  0  0  0  0  0  0  0  0
   -0.4138    1.4616   -6.0948 H   0  0  0  0  0  0  0  0  0  0  0  0
   -2.2619    1.5236   -4.4097 H   0  0  0  0  0  0  0  0  0  0  0  0
  1  2  2  0
  2  3  1  0
  2  4  1  0
  4  5  1  0
  5  6  1  0
  6  7  2  0
  7  8  1  0
  8  9  1  0
  9 10  2  0
 10 11  1  0
 11 12  2  0
 12 13  1  0
 13 14  2  0
  4 15  1  0
 15 16  1  0
 16 17  1  0
 17 18  2  0
 17 19  1  0
 19 20  2  0
 20 21  1  0
 21 22  2  0
 22 23  1  0
 23 24  2  0
 24 25  1  0
 25 26  2  0
 14  6  1  0
 25 16  1  0
 14  9  1  0
 24 19  1  0
  4 27  1  6
  5 28  1  0
  5 29  1  0
  7 30  1  0
  8 31  1  0
 10 32  1  0
 11 33  1  0
 12 34  1  0
 13 35  1  0
 15 36  1  0
 15 37  1  0
 16 38  1  0
 20 39  1  0
 21 40  1  0
 22 41  1  0
 23 42  1  0
M  CHG  2   3  -1  16   1
M  END
>  <UniqueID>  (19) 
18

>  <SMILES>  (19) 
O=C([O-])[C@@H](Cc1c[nH]c2ccccc12)C[NH+]1C(=O)c2ccccc2C1=O

>  <Energy>  (19) 
102.09235979899701

>  <Genealogy>  (19) 
O=C([O-])[C@@H](Cc1c[nH]c2ccccc12)C[NH+]1C(=O)c2ccccc2C1=O (protonated)
O=C([O-])[C@@H](Cc1c[nH]c2ccccc12)C[NH+]1C(=O)c2ccccc2C1=O (3D coordinates assigned)
O=C([O-])[C@@H](Cc1c[nH]c2ccccc12)C[NH+]1C(=O)c2ccccc2C1=O (nonaromatic ring conformer: 102.09235979899701 kcal/mol)

$$$$
untitled_line_19
     RDKit          3D

 41 44  0  0  0  0  0  0  0  0999 V2000
   -4.2528   -0.3470   -1.9361 O   0  0  0  0  0  0  0  0  0  0  0  0
   -3.9421   -0.2004   -0.7248 C   0  0  0  0  0  0  0  0  0  0  0  0
   -4.3651    0.9305   -0.0378 O   0  0  0  0  0  1  0  0  0  0  0  0
   -3.0798   -1.2158   -0.0400 C   0  0  0  0  0  0  0  0  0  0  0  0
   -1.5887   -0.9779   -0.3417 C   0  0  2  0  0  0  0  0  0  0  0  0
   -0.7124   -2.0468    0.3443 C   0  0  0  0  0  0  0  0  0  0  0  0
    0.7367   -1.8828   -0.0197 C   0  0  0  0  0  0  0  0  0  0  0  0
    1.3111   -2.1859   -1.2510 C   0  0  0  0  0  0  0  0  0  0  0  0
    2.5951   -1.7641   -1.2913 N   0  0  0  0  0  0  0  0  0  0  0  0
    2.8346   -1.1874   -0.1011 C   0  0  0  0  0  0  0  0  0  0  0  0
    4.0079   -0.5554    0.3086 C   0  0  0  0  0  0  0  0  0  0  0  0
    4.0287    0.0284    1.5881 C   0  0  0  0  0  0  0  0  0  0  0  0
    2.8905   -0.0341    2.4213 C   0  0  0  0  0  0  0  0  0  0  0  0
    1.7209   -0.6797    1.9824 C   0  0  0  0  0  0  0  0  0  0  0  0
    1.7262   -1.2432    0.7052 C   0  0  0  0  0  0  0  0  0  0  0  0
   -1.1739    0.3763    0.0574 N   0  0  0  0  0  0  0  0  0  0  0  0
   -0.2259    1.1853   -0.6495 C   0  0  0  0  0  0  0  0  0  0  0  0
    0.1115    0.9961   -1.8483 O   0  0  0  0  0  0  0  0  0  0  0  0
    0.3219    2.2115    0.2273 C   0  0  0  0  0  0  0  0  0  0  0  0
    1.3110    3.1666    0.0007 C   0  0  0  0  0  0  0  0  0  0  0  0
    1.6936    3.9880    1.0761 C   0  0  0  0  0  0  0  0  0  0  0  0
    1.0947    3.8301    2.3449 C   0  0  0  0  0  0  0  0  0  0  0  0
    0.1081    2.8492    2.5498 C   0  0  0  0  0  0  0  0  0  0  0  0
   -0.2622    2.0574    1.4644 C   0  0  0  0  0  0  0  0  0  0  0  0
   -1.1800    0.9280    1.3820 C   0  0  0  0  0  0  0  0  0  0  0  0
   -1.8439    0.4621    2.3453 O   0  0  0  0  0  0  0  0  0  0  0  0
   -3.3715   -2.2279   -0.3967 H   0  0  0  0  0  0  0  0  0  0  0  0
   -3.2713   -1.1868    1.0528 H   0  0  0  0  0  0  0  0  0  0  0  0
   -1.4590   -1.0849   -1.4427 H   0  0  0  0  0  0  0  0  0  0  0  0
   -0.8366   -1.9985    1.4468 H   0  0  0  0  0  0  0  0  0  0  0  0
   -1.0407   -3.0575    0.0184 H   0  0  0  0  0  0  0  0  0  0  0  0
    0.8038   -2.6546   -2.0841 H   0  0  0  0  0  0  0  0  0  0  0  0
    3.2530   -1.8417   -2.0984 H   0  0  0  0  0  0  0  0  0  0  0  0
    4.8727   -0.5055   -0.3403 H   0  0  0  0  0  0  0  0  0  0  0  0
    4.9220    0.5312    1.9350 H   0  0  0  0  0  0  0  0  0  0  0  0
    2.9164    0.4211    3.4027 H   0  0  0  0  0  0  0  0  0  0  0  0
    0.8478   -0.7269    2.6184 H   0  0  0  0  0  0  0  0  0  0  0  0
    1.7790    3.2665   -0.9699 H   0  0  0  0  0  0  0  0  0  0  0  0
    2.4590    4.7393    0.9324 H   0  0  0  0  0  0  0  0  0  0  0  0
    1.4041    4.4610    3.1679 H   0  0  0  0  0  0  0  0  0  0  0  0
   -0.3407    2.7064    3.5241 H   0  0  0  0  0  0  0  0  0  0  0  0
  1  2  2  0
  2  3  1  0
  2  4  1  0
  4  5  1  0
  5  6  1  0
  6  7  1  0
  7  8  2  0
  8  9  1  0
  9 10  1  0
 10 11  2  0
 11 12  1  0
 12 13  2  0
 13 14  1  0
 14 15  2  0
  5 16  1  0
 16 17  1  0
 17 18  2  0
 17 19  1  0
 19 20  2  0
 20 21  1  0
 21 22  2  0
 22 23  1  0
 23 24  2  0
 24 25  1  0
 25 26  2  0
 15  7  1  0
 25 16  1  0
 15 10  1  0
 24 19  1  0
  4 27  1  0
  4 28  1  0
  5 29  1  6
  6 30  1  0
  6 31  1  0
  8 32  1  0
  9 33  1  0
 11 34  1  0
 12 35  1  0
 13 36  1  0
 14 37  1  0
 20 38  1  0
 21 39  1  0
 22 40  1  0
 23 41  1  0
M  CHG  1   3  -1
M  END
>  <UniqueID>  (20) 
19

>  <SMILES>  (20) 
O=C([O-])C[C@H](Cc1c[nH]c2ccccc12)N1C(=O)c2ccccc2C1=O

>  <Energy>  (20) 
101.78801700927391

>  <Genealogy>  (20) 
O=C([O-])C[C@H](Cc1c[nH]c2ccccc12)N1C(=O)c2ccccc2C1=O (protonated)
O=C([O-])C[C@H](Cc1c[nH]c2ccccc12)N1C(=O)c2ccccc2C1=O (3D coordinates assigned)
O=C([O-])C[C@H](Cc1c[nH]c2ccccc12)N1C(=O)c2ccccc2C1=O (nonaromatic ring conformer: 101.78801700927391 kcal/mol)

$$$$
untitled_line_20
     RDKit          3D

 37 38  0  0  0  0  0  0  0  0999 V2000
   -2.2942    0.2156   -0.3866 C   0  0  0  0  0  0  0  0  0  0  0  0
   -2.0496   -1.0183   -1.2660 C   0  0  2  0  0  0  0  0  0  0  0  0
   -2.5692   -2.3147   -0.6145 C   0  0  0  0  0  0  0  0  0  0  0  0
   -1.7823   -2.6927    0.9908 S   0  0  0  0  0  0  0  0  0  0  0  0
   -0.6008   -1.1297   -1.6640 C   0  0  0  0  0  0  0  0  0  0  0  0
   -0.3014   -1.3425   -2.8703 O   0  0  0  0  0  0  0  0  0  0  0  0
    0.4307   -1.0045   -0.6789 N   0  0  0  0  0  2  0  0  0  0  0  0
    1.8582   -0.9936   -0.9896 C   0  0  1  0  0  0  0  0  0  0  0  0
    2.6607   -0.5938    0.2565 C   0  0  0  0  0  0  0  0  0  0  0  0
    2.2438    0.7588    0.7584 C   0  0  0  0  0  0  0  0  0  0  0  0
    2.6713    1.9900    0.2707 C   0  0  0  0  0  0  0  0  0  0  0  0
    2.0022    2.9965    0.8781 N   0  0  0  0  0  0  0  0  0  0  0  0
    1.1465    2.4111    1.7340 C   0  0  0  0  0  0  0  0  0  0  0  0
    0.2170    3.0395    2.5617 C   0  0  0  0  0  0  0  0  0  0  0  0
   -0.6093    2.2264    3.3590 C   0  0  0  0  0  0  0  0  0  0  0  0
   -0.4913    0.8197    3.3100 C   0  0  0  0  0  0  0  0  0  0  0  0
    0.4546    0.2131    2.4640 C   0  0  0  0  0  0  0  0  0  0  0  0
    1.2618    1.0454    1.6874 C   0  0  0  0  0  0  0  0  0  0  0  0
    2.2924   -2.3507   -1.4627 C   0  0  0  0  0  0  0  0  0  0  0  0
    2.9956   -2.4632   -2.5011 O   0  0  0  0  0  0  0  0  0  0  0  0
    1.9488   -3.4873   -0.7406 O   0  0  0  0  0  1  0  0  0  0  0  0
   -1.7305    0.1516    0.5664 H   0  0  0  0  0  0  0  0  0  0  0  0
   -1.9734    1.1340   -0.9235 H   0  0  0  0  0  0  0  0  0  0  0  0
   -3.3762    0.3096   -0.1536 H   0  0  0  0  0  0  0  0  0  0  0  0
   -2.6438   -0.8669   -2.1952 H   0  0  0  0  0  0  0  0  0  0  0  0
   -2.4128   -3.1714   -1.3051 H   0  0  0  0  0  0  0  0  0  0  0  0
   -3.6633   -2.2223   -0.4457 H   0  0  0  0  0  0  0  0  0  0  0  0
   -0.6570   -3.2913    0.3949 H   0  0  0  0  0  0  0  0  0  0  0  0
    2.0475   -0.2437   -1.7907 H   0  0  0  0  0  0  0  0  0  0  0  0
    3.7438   -0.5641    0.0064 H   0  0  0  0  0  0  0  0  0  0  0  0
    2.5225   -1.3482    1.0614 H   0  0  0  0  0  0  0  0  0  0  0  0
    3.4143    2.1385   -0.5021 H   0  0  0  0  0  0  0  0  0  0  0  0
    2.1135    4.0190    0.6977 H   0  0  0  0  0  0  0  0  0  0  0  0
    0.1282    4.1178    2.5865 H   0  0  0  0  0  0  0  0  0  0  0  0
   -1.3431    2.6819    4.0111 H   0  0  0  0  0  0  0  0  0  0  0  0
   -1.1360    0.2039    3.9233 H   0  0  0  0  0  0  0  0  0  0  0  0
    0.5423   -0.8642    2.4157 H   0  0  0  0  0  0  0  0  0  0  0  0
  1  2  1  0
  2  3  1  0
  3  4  1  0
  2  5  1  0
  5  6  2  0
  5  7  1  0
  7  8  1  0
  8  9  1  0
  9 10  1  0
 10 11  2  0
 11 12  1  0
 12 13  1  0
 13 14  2  0
 14 15  1  0
 15 16  2  0
 16 17  1  0
 17 18  2  0
  8 19  1  0
 19 20  2  0
 19 21  1  0
 18 10  1  0
 18 13  1  0
  1 22  1  0
  1 23  1  0
  1 24  1  0
  2 25  1  6
  3 26  1  0
  3 27  1  0
  4 28  1  0
  8 29  1  6
  9 30  1  0
  9 31  1  0
 11 32  1  0
 12 33  1  0
 14 34  1  0
 15 35  1  0
 16 36  1  0
 17 37  1  0
M  CHG  2   7  -1  21  -1
M  END
>  <UniqueID>  (21) 
20

>  <SMILES>  (21) 
C[C@H](CS)C(=O)[N-][C@@H](Cc1c[nH]c2ccccc12)C(=O)[O-]

>  <Energy>  (21) 
58.324520055412755

>  <Genealogy>  (21) 
CC(CS)C(=O)[N-][C@@H](Cc1c[nH]c2ccccc12)C(=O)[O-] (protonated)
C[C@H](CS)C(=O)[N-][C@@H](Cc1c[nH]c2ccccc12)C(=O)[O-] (chirality)
C[C@H](CS)C(=O)[N-][C@@H](Cc1c[nH]c2ccccc12)C(=O)[O-] (3D coordinates assigned)
C[C@H](CS)C(=O)[N-][C@@H](Cc1c[nH]c2ccccc12)C(=O)[O-] (optimized conformer: 58.324520055412755 kcal/mol)

$$$$
untitled_line_21
     RDKit          3D

 33 34  0  0  0  0  0  0  0  0999 V2000
    3.8217    0.7143    2.0509 O   0  0  0  0  0  0  0  0  0  0  0  0
    2.9881   -0.1589    1.6896 C   0  0  0  0  0  0  0  0  0  0  0  0
    2.0009   -0.7195    2.6880 C   0  0  0  0  0  0  0  0  0  0  0  0
    1.8751    0.1139    3.9691 C   0  0  0  0  0  0  0  0  0  0  0  0
    1.1159    1.6943    3.6405 S   0  0  0  0  0  1  0  0  0  0  0  0
    3.0622   -0.6524    0.3446 N   0  0  0  0  0  2  0  0  0  0  0  0
    2.1561   -1.6181   -0.2796 C   0  0  1  0  0  0  0  0  0  0  0  0
    1.1687   -0.8988   -1.2133 C   0  0  0  0  0  0  0  0  0  0  0  0
    0.2690    0.0372   -0.4610 C   0  0  0  0  0  0  0  0  0  0  0  0
    0.4632    1.4026   -0.2738 C   0  0  0  0  0  0  0  0  0  0  0  0
   -0.5068    1.9127    0.5187 N   0  0  0  0  0  0  0  0  0  0  0  0
   -1.3037    0.8796    0.8426 C   0  0  0  0  0  0  0  0  0  0  0  0
   -2.4197    0.9032    1.6775 C   0  0  0  0  0  0  0  0  0  0  0  0
   -3.0910   -0.3109    1.9120 C   0  0  0  0  0  0  0  0  0  0  0  0
   -2.6336   -1.5082    1.3179 C   0  0  0  0  0  0  0  0  0  0  0  0
   -1.5016   -1.5026    0.4828 C   0  0  0  0  0  0  0  0  0  0  0  0
   -0.8620   -0.2825    0.2637 C   0  0  0  0  0  0  0  0  0  0  0  0
    2.9646   -2.6066   -1.0661 C   0  0  0  0  0  0  0  0  0  0  0  0
    3.8557   -2.2120   -1.8646 O   0  0  0  0  0  0  0  0  0  0  0  0
    2.7085   -3.9666   -0.9433 O   0  0  0  0  0  1  0  0  0  0  0  0
    0.9966   -0.8016    2.2286 H   0  0  0  0  0  0  0  0  0  0  0  0
    2.3323   -1.7432    2.9634 H   0  0  0  0  0  0  0  0  0  0  0  0
    1.2360   -0.4328    4.6943 H   0  0  0  0  0  0  0  0  0  0  0  0
    2.8704    0.2672    4.4378 H   0  0  0  0  0  0  0  0  0  0  0  0
    1.5939   -2.1856    0.4916 H   0  0  0  0  0  0  0  0  0  0  0  0
    0.5404   -1.6482   -1.7425 H   0  0  0  0  0  0  0  0  0  0  0  0
    1.7273   -0.3255   -1.9859 H   0  0  0  0  0  0  0  0  0  0  0  0
    1.2797    1.9852   -0.6798 H   0  0  0  0  0  0  0  0  0  0  0  0
   -0.5994    2.9040    0.8336 H   0  0  0  0  0  0  0  0  0  0  0  0
   -2.7559    1.8237    2.1369 H   0  0  0  0  0  0  0  0  0  0  0  0
   -3.9604   -0.3282    2.5561 H   0  0  0  0  0  0  0  0  0  0  0  0
   -3.1546   -2.4370    1.5100 H   0  0  0  0  0  0  0  0  0  0  0  0
   -1.1386   -2.4177    0.0334 H   0  0  0  0  0  0  0  0  0  0  0  0
  1  2  2  0
  2  3  1  0
  3  4  1  0
  4  5  1  0
  2  6  1  0
  6  7  1  0
  7  8  1  0
  8  9  1  0
  9 10  2  0
 10 11  1  0
 11 12  1  0
 12 13  2  0
 13 14  1  0
 14 15  2  0
 15 16  1  0
 16 17  2  0
  7 18  1  0
 18 19  2  0
 18 20  1  0
 17  9  1  0
 17 12  1  0
  3 21  1  0
  3 22  1  0
  4 23  1  0
  4 24  1  0
  7 25  1  1
  8 26  1  0
  8 27  1  0
 10 28  1  0
 11 29  1  0
 13 30  1  0
 14 31  1  0
 15 32  1  0
 16 33  1  0
M  CHG  3   5  -1   6  -1  20  -1
M  END
>  <UniqueID>  (22) 
21

>  <SMILES>  (22) 
O=C(CC[S-])[N-][C@@H](Cc1c[nH]c2ccccc12)C(=O)[O-]

>  <Energy>  (22) 
59.11865679622533

>  <Genealogy>  (22) 
O=C(CC[S-])[N-][C@@H](Cc1c[nH]c2ccccc12)C(=O)[O-] (protonated)
O=C(CC[S-])[N-][C@@H](Cc1c[nH]c2ccccc12)C(=O)[O-] (3D coordinates assigned)
O=C(CC[S-])[N-][C@@H](Cc1c[nH]c2ccccc12)C(=O)[O-] (optimized conformer: 59.11865679622533 kcal/mol)

$$$$
untitled_line_22
     RDKit          3D

 53 57  0  0  0  0  0  0  0  0999 V2000
    0.0219   -3.6390   -2.5901 H   0  0  0  0  0  0  0  0  0  0  0  0
   -0.0920   -2.6125   -2.2623 C   0  0  0  0  0  0  0  0  0  0  0  0
    0.9241   -1.7585   -2.4500 C   0  0  0  0  0  0  0  0  0  0  0  0
    2.5350   -2.3080   -2.9496 S   0  0  0  0  0  0  0  0  0  0  0  0
    3.1608   -0.9243   -1.9830 C   0  0  0  0  0  0  0  0  0  0  0  0
    4.3452   -1.1099   -1.1833 S   0  0  0  0  0  0  0  0  0  0  0  0
    2.2445    0.1730   -1.7246 N   0  0  1  0  0  4  0  0  0  0  0  0
    2.2361    0.3752   -0.6970 H   0  0  0  0  0  0  0  0  0  0  0  0
    2.6319    1.3855   -2.5043 C   0  0  1  0  0  0  0  0  0  0  0  0
    3.7193    1.5724   -2.3451 H   0  0  0  0  0  0  0  0  0  0  0  0
    2.4488    1.2008   -3.9962 C   0  0  0  0  0  0  0  0  0  0  0  0
    1.3198    1.3597   -4.5330 O   0  0  0  0  0  0  0  0  0  0  0  0
    3.5271    0.8110   -4.7804 O   0  0  0  0  0  1  0  0  0  0  0  0
    1.9169    2.6729   -2.0164 C   0  0  0  0  0  0  0  0  0  0  0  0
    2.2964    3.5385   -2.6023 H   0  0  0  0  0  0  0  0  0  0  0  0
    0.8258    2.6224   -2.2035 H   0  0  0  0  0  0  0  0  0  0  0  0
    2.1826    2.9523   -0.5626 C   0  0  0  0  0  0  0  0  0  0  0  0
    3.4130    3.2831   -0.0017 C   0  0  0  0  0  0  0  0  0  0  0  0
    4.3334    3.4401   -0.5494 H   0  0  0  0  0  0  0  0  0  0  0  0
    3.3173    3.3499    1.3453 N   0  0  0  0  0  0  0  0  0  0  0  0
    4.0879    3.5641    2.0168 H   0  0  0  0  0  0  0  0  0  0  0  0
    2.0394    3.0579    1.6420 C   0  0  0  0  0  0  0  0  0  0  0  0
    1.4668    2.9737    2.9098 C   0  0  0  0  0  0  0  0  0  0  0  0
    2.0511    3.1612    3.8015 H   0  0  0  0  0  0  0  0  0  0  0  0
    0.1049    2.6327    2.9960 C   0  0  0  0  0  0  0  0  0  0  0  0
   -0.3692    2.5576    3.9664 H   0  0  0  0  0  0  0  0  0  0  0  0
   -0.6461    2.3895    1.8259 C   0  0  0  0  0  0  0  0  0  0  0  0
   -1.6955    2.1357    1.9035 H   0  0  0  0  0  0  0  0  0  0  0  0
   -0.0410    2.4749    0.5600 C   0  0  0  0  0  0  0  0  0  0  0  0
   -0.6189    2.2973   -0.3347 H   0  0  0  0  0  0  0  0  0  0  0  0
    1.3129    2.8107    0.5043 C   0  0  0  0  0  0  0  0  0  0  0  0
    0.9482   -0.3534   -2.0541 C   0  0  0  0  0  0  0  0  0  0  0  0
   -0.1002    0.3387   -1.9532 O   0  0  0  0  0  0  0  0  0  0  0  0
   -1.3795   -2.2251   -1.6441 C   0  0  0  0  0  0  0  0  0  0  0  0
   -2.5239   -2.2790   -2.4428 C   0  0  0  0  0  0  0  0  0  0  0  0
   -2.4561   -2.6186   -3.4698 H   0  0  0  0  0  0  0  0  0  0  0  0
   -3.7582   -1.8706   -1.9474 C   0  0  0  0  0  0  0  0  0  0  0  0
   -4.6191   -1.9137   -2.6031 H   0  0  0  0  0  0  0  0  0  0  0  0
   -3.8864   -1.3988   -0.6335 C   0  0  0  0  0  0  0  0  0  0  0  0
   -5.2470   -0.9567   -0.1546 C   0  0  0  0  0  0  0  0  0  0  0  0
   -5.5606   -1.5791    0.7096 H   0  0  0  0  0  0  0  0  0  0  0  0
   -5.2107    0.1110    0.1474 H   0  0  0  0  0  0  0  0  0  0  0  0
   -6.0194   -1.0631   -0.9467 H   0  0  0  0  0  0  0  0  0  0  0  0
   -2.7448   -1.3603    0.2076 C   0  0  0  0  0  0  0  0  0  0  0  0
   -2.8280   -0.9016    1.5405 C   0  0  0  0  0  0  0  0  0  0  0  0
   -3.7603   -0.5527    1.9629 H   0  0  0  0  0  0  0  0  0  0  0  0
   -1.7001   -0.8814    2.3603 C   0  0  0  0  0  0  0  0  0  0  0  0
   -1.7776   -0.5228    3.3780 H   0  0  0  0  0  0  0  0  0  0  0  0
   -0.4751   -1.3271    1.8759 C   0  0  0  0  0  0  0  0  0  0  0  0
    0.3951   -1.3164    2.5198 H   0  0  0  0  0  0  0  0  0  0  0  0
   -0.3650   -1.7917    0.5661 C   0  0  0  0  0  0  0  0  0  0  0  0
    0.6029   -2.1457    0.2384 H   0  0  0  0  0  0  0  0  0  0  0  0
   -1.4844   -1.7950   -0.2954 C   0  0  0  0  0  0  0  0  0  0  0  0
  1  2  1  0
  2  3  2  0
  3  4  1  0
  4  5  1  0
  5  6  2  0
  5  7  1  0
  7  8  1  1
  7  9  1  0
  9 10  1  6
  9 11  1  0
 11 12  2  0
 11 13  1  0
  9 14  1  0
 14 15  1  0
 14 16  1  0
 14 17  1  0
 17 18  2  0
 18 19  1  0
 18 20  1  0
 20 21  1  0
 20 22  1  0
 22 23  2  0
 23 24  1  0
 23 25  1  0
 25 26  1  0
 25 27  2  0
 27 28  1  0
 27 29  1  0
 29 30  1  0
 29 31  2  0
  7 32  1  0
 32 33  2  0
  2 34  1  0
 34 35  2  0
 35 36  1  0
 35 37  1  0
 37 38  1  0
 37 39  2  0
 39 40  1  0
 40 41  1  0
 40 42  1  0
 40 43  1  0
 39 44  1  0
 44 45  2  0
 45 46  1  0
 45 47  1  0
 47 48  1  0
 47 49  2  0
 49 50  1  0
 49 51  1  0
 51 52  1  0
 51 53  2  0
 32  3  1  0
 53 34  1  0
 31 17  1  0
 53 44  1  0
 31 22  1  0
M  CHG  2   7   1  13  -1
M  END
>  <UniqueID>  (23) 
22

>  <SMILES>  (23) 
Cc1ccc(/C=C2\SC(=S)[N@@H+]([C@H](Cc3c[nH]c4ccccc34)C(=O)[O-])C2=O)c2ccccc12

>  <Energy>  (23) 
123.75375010328966

>  <Genealogy>  (23) 
Cc1ccc(/C=C2\SC(=S)[NH+]([C@H](Cc3c[nH]c4ccccc34)C(=O)[O-])C2=O)c2ccccc12 (protonated)
Cc1ccc(/C=C2\SC(=S)[N@@H+]([C@H](Cc3c[nH]c4ccccc34)C(=O)[O-])C2=O)c2ccccc12 (chirality)
Cc1ccc(/C=C2\SC(=S)[N@@H+]([C@H](Cc3c[nH]c4ccccc34)C(=O)[O-])C2=O)c2ccccc12 (cis-trans isomerization)
Cc1ccc(/C=C2\SC(=S)[N@@H+]([C@H](Cc3c[nH]c4ccccc34)C(=O)[O-])C2=O)c2ccccc12 (3D coordinates assigned)
Cc1ccc(/C=C2\SC(=S)[N@@H+]([C@H](Cc3c[nH]c4ccccc34)C(=O)[O-])C2=O)c2ccccc12 (nonaromatic ring conformer: 123.75375010328966 kcal/mol)

$$$$
untitled_line_23
     RDKit          3D

 41 43  0  0  0  0  0  0  0  0999 V2000
    2.3884   -1.1256   -2.1813 C   0  0  0  0  0  0  0  0  0  0  0  0
    0.9582   -0.6815   -2.0610 C   0  0  0  0  0  0  0  0  0  0  0  0
    0.3042   -0.0451   -3.0994 C   0  0  0  0  0  0  0  0  0  0  0  0
   -0.9449    0.2908   -2.6401 C   0  0  0  0  0  0  0  0  0  0  0  0
   -1.0102   -0.1443   -1.3333 C   0  0  0  0  0  0  0  0  0  0  0  0
   -2.2113    0.0446   -0.4538 C   0  0  0  0  0  0  0  0  0  0  0  0
    0.1588   -0.7265   -0.9545 N   0  0  0  0  0  0  0  0  0  0  0  0
    0.3987   -1.3180    0.3857 C   0  0  1  0  0  0  0  0  0  0  0  0
    0.1187   -2.8366    0.4169 C   0  0  0  0  0  0  0  0  0  0  0  0
    1.1006   -3.6700   -0.3399 C   0  0  0  0  0  0  0  0  0  0  0  0
    2.1916   -4.0050    0.1923 O   0  0  0  0  0  0  0  0  0  0  0  0
    0.8132   -4.0766   -1.6371 O   0  0  0  0  0  1  0  0  0  0  0  0
    1.7381   -0.8983    1.0314 C   0  0  0  0  0  0  0  0  0  0  0  0
    1.7621    0.5804    1.3086 C   0  0  0  0  0  0  0  0  0  0  0  0
    2.3909    1.5683    0.5549 C   0  0  0  0  0  0  0  0  0  0  0  0
    2.1318    2.7924    1.0682 N   0  0  0  0  0  0  0  0  0  0  0  0
    1.3399    2.5889    2.1345 C   0  0  0  0  0  0  0  0  0  0  0  0
    0.7973    3.5553    2.9804 C   0  0  0  0  0  0  0  0  0  0  0  0
   -0.0230    3.1187    4.0366 C   0  0  0  0  0  0  0  0  0  0  0  0
   -0.2803    1.7421    4.2208 C   0  0  0  0  0  0  0  0  0  0  0  0
    0.2806    0.7896    3.3508 C   0  0  0  0  0  0  0  0  0  0  0  0
    1.0907    1.2526    2.3130 C   0  0  0  0  0  0  0  0  0  0  0  0
    2.5828   -2.0719   -1.6552 H   0  0  0  0  0  0  0  0  0  0  0  0
    3.0645   -0.3397   -1.7950 H   0  0  0  0  0  0  0  0  0  0  0  0
    2.6422   -1.2947   -3.2493 H   0  0  0  0  0  0  0  0  0  0  0  0
    0.6994    0.1616   -4.0856 H   0  0  0  0  0  0  0  0  0  0  0  0
   -1.7190    0.8032   -3.1963 H   0  0  0  0  0  0  0  0  0  0  0  0
   -1.9646    0.7483    0.3686 H   0  0  0  0  0  0  0  0  0  0  0  0
   -2.5267   -0.9313   -0.0297 H   0  0  0  0  0  0  0  0  0  0  0  0
   -3.0604    0.4634   -1.0345 H   0  0  0  0  0  0  0  0  0  0  0  0
   -0.3671   -0.9112    1.0798 H   0  0  0  0  0  0  0  0  0  0  0  0
    0.1028   -3.1827    1.4738 H   0  0  0  0  0  0  0  0  0  0  0  0
   -0.8971   -3.0236    0.0063 H   0  0  0  0  0  0  0  0  0  0  0  0
    1.8520   -1.4284    2.0017 H   0  0  0  0  0  0  0  0  0  0  0  0
    2.6133   -1.1868    0.4242 H   0  0  0  0  0  0  0  0  0  0  0  0
    3.0020    1.4071   -0.3204 H   0  0  0  0  0  0  0  0  0  0  0  0
    2.4729    3.7087    0.7014 H   0  0  0  0  0  0  0  0  0  0  0  0
    0.9978    4.6081    2.8292 H   0  0  0  0  0  0  0  0  0  0  0  0
   -0.4606    3.8426    4.7116 H   0  0  0  0  0  0  0  0  0  0  0  0
   -0.9134    1.4177    5.0363 H   0  0  0  0  0  0  0  0  0  0  0  0
    0.0873   -0.2664    3.4874 H   0  0  0  0  0  0  0  0  0  0  0  0
  1  2  1  0
  2  3  2  0
  3  4  1  0
  4  5  2  0
  5  6  1  0
  5  7  1  0
  7  8  1  0
  8  9  1  0
  9 10  1  0
 10 11  2  0
 10 12  1  0
  8 13  1  0
 13 14  1  0
 14 15  2  0
 15 16  1  0
 16 17  1  0
 17 18  2  0
 18 19  1  0
 19 20  2  0
 20 21  1  0
 21 22  2  0
  7  2  1  0
 22 14  1  0
 22 17  1  0
  1 23  1  0
  1 24  1  0
  1 25  1  0
  3 26  1  0
  4 27  1  0
  6 28  1  0
  6 29  1  0
  6 30  1  0
  8 31  1  1
  9 32  1  0
  9 33  1  0
 13 34  1  0
 13 35  1  0
 15 36  1  0
 16 37  1  0
 18 38  1  0
 19 39  1  0
 20 40  1  0
 21 41  1  0
M  CHG  1  12  -1
M  END
>  <UniqueID>  (24) 
23

>  <SMILES>  (24) 
Cc1ccc(C)n1[C@@H](CC(=O)[O-])Cc1c[nH]c2ccccc12

>  <Energy>  (24) 
102.10905630257649

>  <Genealogy>  (24) 
Cc1ccc(C)n1[C@@H](CC(=O)[O-])Cc1c[nH]c2ccccc12 (protonated)
Cc1ccc(C)n1[C@@H](CC(=O)[O-])Cc1c[nH]c2ccccc12 (3D coordinates assigned)
Cc1ccc(C)n1[C@@H](CC(=O)[O-])Cc1c[nH]c2ccccc12 (optimized conformer: 102.10905630257649 kcal/mol)

$$$$
untitled_line_24
     RDKit          3D

 43 46  0  0  0  0  0  0  0  0999 V2000
    1.5043    1.3109   -3.6574 O   0  0  0  0  0  0  0  0  0  0  0  0
    1.6096    0.8096   -2.5075 C   0  0  0  0  0  0  0  0  0  0  0  0
    2.2161   -0.4827   -2.3681 N   0  0  0  0  0  2  0  0  0  0  0  0
    2.1391   -1.3243   -1.1739 C   0  0  1  0  0  0  0  0  0  0  0  0
    0.7065   -1.8629   -0.9951 C   0  0  0  0  0  0  0  0  0  0  0  0
    0.5127   -2.4612    0.3685 C   0  0  0  0  0  0  0  0  0  0  0  0
    0.7542   -3.7805    0.7401 C   0  0  0  0  0  0  0  0  0  0  0  0
    0.5482   -3.9419    2.0674 N   0  0  0  0  0  0  0  0  0  0  0  0
    0.1891   -2.7346    2.5377 C   0  0  0  0  0  0  0  0  0  0  0  0
   -0.1118   -2.3957    3.8565 C   0  0  0  0  0  0  0  0  0  0  0  0
   -0.4513   -1.0577    4.1308 C   0  0  0  0  0  0  0  0  0  0  0  0
   -0.4805   -0.0994    3.0933 C   0  0  0  0  0  0  0  0  0  0  0  0
   -0.1705   -0.4706    1.7729 C   0  0  0  0  0  0  0  0  0  0  0  0
    0.1607   -1.8039    1.5312 C   0  0  0  0  0  0  0  0  0  0  0  0
    3.1183   -2.4543   -1.3074 C   0  0  0  0  0  0  0  0  0  0  0  0
    3.1472   -3.1543   -2.3546 O   0  0  0  0  0  0  0  0  0  0  0  0
    3.9771   -2.7561   -0.2578 O   0  0  0  0  0  1  0  0  0  0  0  0
    1.1236    1.5683   -1.3402 C   0  0  0  0  0  0  0  0  0  0  0  0
    1.8743    1.6857   -0.3364 O   0  0  0  0  0  0  0  0  0  0  0  0
   -0.2215    2.1849   -1.3297 C   0  0  0  0  0  0  0  0  0  0  0  0
   -1.1898    2.0844   -2.3292 C   0  0  0  0  0  0  0  0  0  0  0  0
   -2.3237    2.7200   -1.9605 N   0  0  0  0  0  0  0  0  0  0  0  0
   -2.0916    3.2157   -0.7344 C   0  0  0  0  0  0  0  0  0  0  0  0
   -2.9841    3.9289    0.0647 C   0  0  0  0  0  0  0  0  0  0  0  0
   -2.5481    4.3359    1.3375 C   0  0  0  0  0  0  0  0  0  0  0  0
   -1.2453    4.0227    1.7799 C   0  0  0  0  0  0  0  0  0  0  0  0
   -0.3649    3.3018    0.9534 C   0  0  0  0  0  0  0  0  0  0  0  0
   -0.8214    2.9112   -0.3098 C   0  0  0  0  0  0  0  0  0  0  0  0
    2.4289   -0.7252   -0.2851 H   0  0  0  0  0  0  0  0  0  0  0  0
   -0.0290   -1.0412   -1.1255 H   0  0  0  0  0  0  0  0  0  0  0  0
    0.4790   -2.6236   -1.7737 H   0  0  0  0  0  0  0  0  0  0  0  0
    1.0770   -4.5734    0.0780 H   0  0  0  0  0  0  0  0  0  0  0  0
    0.6604   -4.8243    2.6144 H   0  0  0  0  0  0  0  0  0  0  0  0
   -0.0835   -3.1362    4.6453 H   0  0  0  0  0  0  0  0  0  0  0  0
   -0.6906   -0.7610    5.1436 H   0  0  0  0  0  0  0  0  0  0  0  0
   -0.7430    0.9271    3.3147 H   0  0  0  0  0  0  0  0  0  0  0  0
   -0.1947    0.2564    0.9747 H   0  0  0  0  0  0  0  0  0  0  0  0
   -1.0826    1.5574   -3.2678 H   0  0  0  0  0  0  0  0  0  0  0  0
   -3.2069    2.7921   -2.5131 H   0  0  0  0  0  0  0  0  0  0  0  0
   -3.9840    4.1582   -0.2804 H   0  0  0  0  0  0  0  0  0  0  0  0
   -3.2171    4.8896    1.9833 H   0  0  0  0  0  0  0  0  0  0  0  0
   -0.9218    4.3373    2.7635 H   0  0  0  0  0  0  0  0  0  0  0  0
    0.6287    3.0617    1.3029 H   0  0  0  0  0  0  0  0  0  0  0  0
  1  2  2  0
  2  3  1  0
  3  4  1  0
  4  5  1  0
  5  6  1  0
  6  7  2  0
  7  8  1  0
  8  9  1  0
  9 10  2  0
 10 11  1  0
 11 12  2  0
 12 13  1  0
 13 14  2  0
  4 15  1  0
 15 16  2  0
 15 17  1  0
  2 18  1  0
 18 19  2  0
 18 20  1  0
 20 21  2  0
 21 22  1  0
 22 23  1  0
 23 24  2  0
 24 25  1  0
 25 26  2  0
 26 27  1  0
 27 28  2  0
 14  6  1  0
 28 20  1  0
 14  9  1  0
 28 23  1  0
  4 29  1  1
  5 30  1  0
  5 31  1  0
  7 32  1  0
  8 33  1  0
 10 34  1  0
 11 35  1  0
 12 36  1  0
 13 37  1  0
 21 38  1  0
 22 39  1  0
 24 40  1  0
 25 41  1  0
 26 42  1  0
 27 43  1  0
M  CHG  2   3  -1  17  -1
M  END
>  <UniqueID>  (25) 
24

>  <SMILES>  (25) 
O=C([N-][C@@H](Cc1c[nH]c2ccccc12)C(=O)[O-])C(=O)c1c[nH]c2ccccc12

>  <Energy>  (25) 
112.29977422192677

>  <Genealogy>  (25) 
O=C([N-]C(Cc1c[nH]c2ccccc12)C(=O)[O-])C(=O)c1c[nH]c2ccccc12 (protonated)
O=C([N-][C@@H](Cc1c[nH]c2ccccc12)C(=O)[O-])C(=O)c1c[nH]c2ccccc12 (chirality)
O=C([N-][C@@H](Cc1c[nH]c2ccccc12)C(=O)[O-])C(=O)c1c[nH]c2ccccc12 (3D coordinates assigned)
O=C([N-][C@@H](Cc1c[nH]c2ccccc12)C(=O)[O-])C(=O)c1c[nH]c2ccccc12 (optimized conformer: 112.29977422192677 kcal/mol)

$$$$
untitled_line_25
     RDKit          3D

 40 43  0  0  0  0  0  0  0  0999 V2000
    2.7389    0.0646    4.4826 O   0  0  0  0  0  0  0  0  0  0  0  0
    2.9917    0.1303    3.2507 C   0  0  0  0  0  0  0  0  0  0  0  0
    4.2873    0.4073    2.8303 O   0  0  0  0  0  1  0  0  0  0  0  0
    1.9011   -0.1183    2.2365 C   0  0  2  0  0  0  0  0  0  0  0  0
    2.2056   -1.4767    1.5527 C   0  0  0  0  0  0  0  0  0  0  0  0
    0.9863   -2.1286    0.9618 C   0  0  0  0  0  0  0  0  0  0  0  0
   -0.1332   -2.5709    1.6620 C   0  0  0  0  0  0  0  0  0  0  0  0
   -1.0337   -3.1205    0.8164 N   0  0  0  0  0  0  0  0  0  0  0  0
   -0.4913   -3.0367   -0.4104 C   0  0  0  0  0  0  0  0  0  0  0  0
   -1.0497   -3.4745   -1.6105 C   0  0  0  0  0  0  0  0  0  0  0  0
   -0.3046   -3.2894   -2.7890 C   0  0  0  0  0  0  0  0  0  0  0  0
    0.9680   -2.6791   -2.7422 C   0  0  0  0  0  0  0  0  0  0  0  0
    1.5078   -2.2482   -1.5168 C   0  0  0  0  0  0  0  0  0  0  0  0
    0.7447   -2.4424   -0.3637 C   0  0  0  0  0  0  0  0  0  0  0  0
    1.8599    0.9915    1.2469 N   0  0  0  0  0  0  0  0  0  0  0  0
    1.7647    2.3350    1.8761 C   0  0  0  0  0  0  0  0  0  0  0  0
    0.8422    3.1058    1.0194 C   0  0  0  0  0  0  0  0  0  0  0  0
    0.5303    4.4654    1.0832 C   0  0  0  0  0  0  0  0  0  0  0  0
   -0.4133    4.9777    0.1774 C   0  0  0  0  0  0  0  0  0  0  0  0
   -1.0291    4.1252   -0.7597 C   0  0  0  0  0  0  0  0  0  0  0  0
   -0.7019    2.7596   -0.7921 C   0  0  0  0  0  0  0  0  0  0  0  0
    0.2482    2.2826    0.1133 C   0  0  0  0  0  0  0  0  0  0  0  0
    0.7232    0.8974    0.2969 C   0  0  0  0  0  0  0  0  0  0  0  0
    0.9303   -0.1777    2.7813 H   0  0  0  0  0  0  0  0  0  0  0  0
    2.9885   -1.3357    0.7777 H   0  0  0  0  0  0  0  0  0  0  0  0
    2.6167   -2.1951    2.2965 H   0  0  0  0  0  0  0  0  0  0  0  0
   -0.2792   -2.4939    2.7315 H   0  0  0  0  0  0  0  0  0  0  0  0
   -1.9606   -3.5289    1.0700 H   0  0  0  0  0  0  0  0  0  0  0  0
   -2.0257   -3.9417   -1.6363 H   0  0  0  0  0  0  0  0  0  0  0  0
   -0.7093   -3.6170   -3.7376 H   0  0  0  0  0  0  0  0  0  0  0  0
    1.5319   -2.5412   -3.6555 H   0  0  0  0  0  0  0  0  0  0  0  0
    2.4806   -1.7770   -1.4803 H   0  0  0  0  0  0  0  0  0  0  0  0
    2.7656    2.8160    1.8933 H   0  0  0  0  0  0  0  0  0  0  0  0
    1.3399    2.2907    2.9042 H   0  0  0  0  0  0  0  0  0  0  0  0
    1.0021    5.1093    1.8141 H   0  0  0  0  0  0  0  0  0  0  0  0
   -0.6714    6.0283    0.2033 H   0  0  0  0  0  0  0  0  0  0  0  0
   -1.7600    4.5218   -1.4523 H   0  0  0  0  0  0  0  0  0  0  0  0
   -1.1769    2.0932   -1.5003 H   0  0  0  0  0  0  0  0  0  0  0  0
    1.0729    0.4850   -0.6719 H   0  0  0  0  0  0  0  0  0  0  0  0
   -0.1207    0.2970    0.7011 H   0  0  0  0  0  0  0  0  0  0  0  0
  1  2  2  0
  2  3  1  0
  2  4  1  0
  4  5  1  0
  5  6  1  0
  6  7  2  0
  7  8  1  0
  8  9  1  0
  9 10  2  0
 10 11  1  0
 11 12  2  0
 12 13  1  0
 13 14  2  0
  4 15  1  0
 15 16  1  0
 16 17  1  0
 17 18  2  0
 18 19  1  0
 19 20  2  0
 20 21  1  0
 21 22  2  0
 22 23  1  0
 14  6  1  0
 23 15  1  0
 14  9  1  0
 22 17  1  0
  4 24  1  1
  5 25  1  0
  5 26  1  0
  7 27  1  0
  8 28  1  0
 10 29  1  0
 11 30  1  0
 12 31  1  0
 13 32  1  0
 16 33  1  0
 16 34  1  0
 18 35  1  0
 19 36  1  0
 20 37  1  0
 21 38  1  0
 23 39  1  0
 23 40  1  0
M  CHG  1   3  -1
M  END
>  <UniqueID>  (26) 
25

>  <SMILES>  (26) 
O=C([O-])[C@H](Cc1c[nH]c2ccccc12)N1Cc2ccccc2C1

>  <Energy>  (26) 
90.89139498360538

>  <Genealogy>  (26) 
O=C([O-])[C@H](Cc1c[nH]c2ccccc12)N1Cc2ccccc2C1 (protonated)
O=C([O-])[C@H](Cc1c[nH]c2ccccc12)N1Cc2ccccc2C1 (3D coordinates assigned)
O=C([O-])[C@H](Cc1c[nH]c2ccccc12)N1Cc2ccccc2C1 (nonaromatic ring conformer: 90.89139498360538 kcal/mol)

$$$$
untitled_line_26
     RDKit          3D

 29 30  0  0  0  0  0  0  0  0999 V2000
    1.3826    0.9877    2.0432 O   0  0  0  0  0  0  0  0  0  0  0  0
    0.2577    1.2721    1.5521 C   0  0  0  0  0  0  0  0  0  0  0  0
   -0.8697    1.2354    2.3630 O   0  0  0  0  0  1  0  0  0  0  0  0
    0.1274    1.6790    0.1086 C   0  0  2  0  0  0  0  0  0  0  0  0
    0.8475    0.7011   -0.8412 C   0  0  0  0  0  0  0  0  0  0  0  0
    0.2144   -0.6608   -0.8119 C   0  0  0  0  0  0  0  0  0  0  0  0
    0.6364   -1.7569   -0.0652 C   0  0  0  0  0  0  0  0  0  0  0  0
   -0.2120   -2.7970   -0.2330 N   0  0  0  0  0  0  0  0  0  0  0  0
   -1.1706   -2.3634   -1.0701 C   0  0  0  0  0  0  0  0  0  0  0  0
   -2.2787   -3.0753   -1.5275 C   0  0  0  0  0  0  0  0  0  0  0  0
   -3.1730   -2.4162   -2.3910 C   0  0  0  0  0  0  0  0  0  0  0  0
   -2.9439   -1.0749   -2.7710 C   0  0  0  0  0  0  0  0  0  0  0  0
   -1.8178   -0.3807   -2.2923 C   0  0  0  0  0  0  0  0  0  0  0  0
   -0.9473   -1.0623   -1.4416 C   0  0  0  0  0  0  0  0  0  0  0  0
    0.6342    3.0858   -0.0796 C   0  0  0  0  0  0  0  0  0  0  0  0
   -0.1736    3.9944   -0.4132 O   0  0  0  0  0  0  0  0  0  0  0  0
    2.0157    3.4074    0.1184 N   0  0  0  0  0  0  0  0  0  0  0  0
    2.4558    4.6774   -0.0490 O   0  0  0  0  0  0  0  0  0  0  0  0
   -0.9554    1.6682   -0.1517 H   0  0  0  0  0  0  0  0  0  0  0  0
    1.9225    0.6119   -0.5734 H   0  0  0  0  0  0  0  0  0  0  0  0
    0.7985    1.0903   -1.8816 H   0  0  0  0  0  0  0  0  0  0  0  0
    1.5092   -1.7866    0.5740 H   0  0  0  0  0  0  0  0  0  0  0  0
   -0.1406   -3.7396    0.2106 H   0  0  0  0  0  0  0  0  0  0  0  0
   -2.4485   -4.1011   -1.2267 H   0  0  0  0  0  0  0  0  0  0  0  0
   -4.0434   -2.9397   -2.7644 H   0  0  0  0  0  0  0  0  0  0  0  0
   -3.6399   -0.5774   -3.4337 H   0  0  0  0  0  0  0  0  0  0  0  0
   -1.6377    0.6479   -2.5766 H   0  0  0  0  0  0  0  0  0  0  0  0
    2.6953    2.6724    0.4149 H   0  0  0  0  0  0  0  0  0  0  0  0
    2.7390    4.7248   -0.9978 H   0  0  0  0  0  0  0  0  0  0  0  0
  1  2  2  0
  2  3  1  0
  2  4  1  0
  4  5  1  0
  5  6  1  0
  6  7  2  0
  7  8  1  0
  8  9  1  0
  9 10  2  0
 10 11  1  0
 11 12  2  0
 12 13  1  0
 13 14  2  0
  4 15  1  0
 15 16  2  0
 15 17  1  0
 17 18  1  0
 14  6  1  0
 14  9  1  0
  4 19  1  6
  5 20  1  0
  5 21  1  0
  7 22  1  0
  8 23  1  0
 10 24  1  0
 11 25  1  0
 12 26  1  0
 13 27  1  0
 17 28  1  0
 18 29  1  0
M  CHG  1   3  -1
M  END
>  <UniqueID>  (27) 
26

>  <SMILES>  (27) 
O=C([O-])[C@H](Cc1c[nH]c2ccccc12)C(=O)NO

>  <Energy>  (27) 
57.18609322179794

>  <Genealogy>  (27) 
O=C([O-])C(Cc1c[nH]c2ccccc12)C(=O)NO (protonated)
O=C([O-])[C@H](Cc1c[nH]c2ccccc12)C(=O)NO (chirality)
O=C([O-])[C@H](Cc1c[nH]c2ccccc12)C(=O)NO (3D coordinates assigned)
O=C([O-])[C@H](Cc1c[nH]c2ccccc12)C(=O)NO (optimized conformer: 57.18609322179794 kcal/mol)

$$$$
untitled_line_27
     RDKit          3D

 39 42  0  0  0  0  0  0  0  0999 V2000
   -0.2612    4.0869   -0.8438 O   0  0  0  0  0  0  0  0  0  0  0  0
    0.6814    3.4544   -0.2982 C   0  0  0  0  0  0  0  0  0  0  0  0
    1.2957    3.9925    0.8263 O   0  0  0  0  0  1  0  0  0  0  0  0
    1.2201    2.1771   -0.9043 C   0  0  2  0  0  0  0  0  0  0  0  0
    0.3209    1.5604   -2.0071 C   0  0  0  0  0  0  0  0  0  0  0  0
   -0.9339    0.9150   -1.4858 C   0  0  0  0  0  0  0  0  0  0  0  0
   -2.1579    1.5379   -1.2568 C   0  0  0  0  0  0  0  0  0  0  0  0
   -3.0363    0.6677   -0.7087 N   0  0  0  0  0  0  0  0  0  0  0  0
   -2.3790   -0.4984   -0.5874 C   0  0  0  0  0  0  0  0  0  0  0  0
   -2.8603   -1.6853   -0.0366 C   0  0  0  0  0  0  0  0  0  0  0  0
   -1.9847   -2.7847    0.0245 C   0  0  0  0  0  0  0  0  0  0  0  0
   -0.6638   -2.6753   -0.4629 C   0  0  0  0  0  0  0  0  0  0  0  0
   -0.2064   -1.4661   -1.0159 C   0  0  0  0  0  0  0  0  0  0  0  0
   -1.0955   -0.3907   -1.0582 C   0  0  0  0  0  0  0  0  0  0  0  0
    1.5968    1.1616    0.1214 N   0  0  0  0  0  0  0  0  0  0  0  0
    2.7375    0.4120   -0.0679 C   0  0  0  0  0  0  0  0  0  0  0  0
    3.4885    0.6146   -1.0603 O   0  0  0  0  0  0  0  0  0  0  0  0
    3.0718   -0.5736    0.8021 N   0  0  0  0  0  2  0  0  0  0  0  0
    2.3017   -0.8692    1.8734 C   0  0  0  0  0  0  0  0  0  0  0  0
    2.6723   -1.9060    2.7377 C   0  0  0  0  0  0  0  0  0  0  0  0
    1.8661   -2.2244    3.8339 C   0  0  0  0  0  0  0  0  0  0  0  0
    0.6892   -1.5087    4.0690 C   0  0  0  0  0  0  0  0  0  0  0  0
    0.3149   -0.4702    3.2106 C   0  0  0  0  0  0  0  0  0  0  0  0
    1.1232   -0.1413    2.1049 C   0  0  0  0  0  0  0  0  0  0  0  0
    0.7858    0.8848    1.2055 C   0  0  0  0  0  0  0  0  0  0  0  0
   -0.2806    1.5349    1.3927 O   0  0  0  0  0  0  0  0  0  0  0  0
    2.1351    2.5260   -1.4311 H   0  0  0  0  0  0  0  0  0  0  0  0
    0.9091    0.7974   -2.5604 H   0  0  0  0  0  0  0  0  0  0  0  0
    0.0486    2.3393   -2.7519 H   0  0  0  0  0  0  0  0  0  0  0  0
   -2.3899    2.5733   -1.4670 H   0  0  0  0  0  0  0  0  0  0  0  0
   -4.0199    0.8702   -0.4224 H   0  0  0  0  0  0  0  0  0  0  0  0
   -3.8722   -1.7577    0.3403 H   0  0  0  0  0  0  0  0  0  0  0  0
   -2.3250   -3.7195    0.4503 H   0  0  0  0  0  0  0  0  0  0  0  0
    0.0025   -3.5263   -0.4074 H   0  0  0  0  0  0  0  0  0  0  0  0
    0.8066   -1.3763   -1.3842 H   0  0  0  0  0  0  0  0  0  0  0  0
    3.5803   -2.4686    2.5590 H   0  0  0  0  0  0  0  0  0  0  0  0
    2.1524   -3.0278    4.5002 H   0  0  0  0  0  0  0  0  0  0  0  0
    0.0655   -1.7594    4.9174 H   0  0  0  0  0  0  0  0  0  0  0  0
   -0.6032    0.0680    3.4115 H   0  0  0  0  0  0  0  0  0  0  0  0
  1  2  2  0
  2  3  1  0
  2  4  1  0
  4  5  1  0
  5  6  1  0
  6  7  2  0
  7  8  1  0
  8  9  1  0
  9 10  2  0
 10 11  1  0
 11 12  2  0
 12 13  1  0
 13 14  2  0
  4 15  1  0
 15 16  1  0
 16 17  2  0
 16 18  1  0
 18 19  1  0
 19 20  2  0
 20 21  1  0
 21 22  2  0
 22 23  1  0
 23 24  2  0
 24 25  1  0
 25 26  2  0
 14  6  1  0
 25 15  1  0
 14  9  1  0
 24 19  1  0
  4 27  1  6
  5 28  1  0
  5 29  1  0
  7 30  1  0
  8 31  1  0
 10 32  1  0
 11 33  1  0
 12 34  1  0
 13 35  1  0
 20 36  1  0
 21 37  1  0
 22 38  1  0
 23 39  1  0
M  CHG  2   3  -1  18  -1
M  END
>  <UniqueID>  (28) 
27

>  <SMILES>  (28) 
O=C([O-])[C@H](Cc1c[nH]c2ccccc12)n1c(=O)[n-]c2ccccc2c1=O

>  <Energy>  (28) 
86.35505251397245

>  <Genealogy>  (28) 
O=C([O-])[C@H](Cc1c[nH]c2ccccc12)n1c(=O)[n-]c2ccccc2c1=O (protonated)
O=C([O-])[C@H](Cc1c[nH]c2ccccc12)n1c(=O)[n-]c2ccccc2c1=O (3D coordinates assigned)
O=C([O-])[C@H](Cc1c[nH]c2ccccc12)n1c(=O)[n-]c2ccccc2c1=O (optimized conformer: 86.35505251397245 kcal/mol)

$$$$
untitled_line_28
     RDKit          3D

 44 47  0  0  0  0  0  0  0  0999 V2000
    2.8328    3.0004   -0.1482 H   0  0  0  0  0  0  0  0  0  0  0  0
    2.9423    2.5590    0.8352 C   0  0  0  0  0  0  0  0  0  0  0  0
    2.1258    1.5556    1.1915 C   0  0  0  0  0  0  0  0  0  0  0  0
    2.2735    0.6143    2.6996 S   0  0  0  0  0  0  0  0  0  0  0  0
    0.7014   -0.1384    2.2630 C   0  0  0  0  0  0  0  0  0  0  0  0
   -0.2032   -0.5432    3.3089 S   0  0  0  0  0  0  0  0  0  0  0  0
    0.2585   -0.0167    0.8873 N   0  0  2  0  0  4  0  0  0  0  0  0
   -0.7451    0.2836    0.8711 H   0  0  0  0  0  0  0  0  0  0  0  0
    0.4380   -1.3095    0.1625 C   0  0  2  0  0  0  0  0  0  0  0  0
   -0.0661   -2.1117    0.7503 H   0  0  0  0  0  0  0  0  0  0  0  0
    1.8940   -1.7093    0.0376 C   0  0  0  0  0  0  0  0  0  0  0  0
    2.3929   -2.5327    0.8493 O   0  0  0  0  0  0  0  0  0  0  0  0
    2.7008   -1.1466   -0.9450 O   0  0  0  0  0  1  0  0  0  0  0  0
   -0.2361   -1.3212   -1.2313 C   0  0  0  0  0  0  0  0  0  0  0  0
    0.2162   -0.5604   -1.9003 H   0  0  0  0  0  0  0  0  0  0  0  0
   -0.0620   -2.3088   -1.7118 H   0  0  0  0  0  0  0  0  0  0  0  0
   -1.7196   -1.1023   -1.1476 C   0  0  0  0  0  0  0  0  0  0  0  0
   -2.4012    0.0798   -1.4231 C   0  0  0  0  0  0  0  0  0  0  0  0
   -1.9517    1.0020   -1.7673 H   0  0  0  0  0  0  0  0  0  0  0  0
   -3.7237   -0.0713   -1.1836 N   0  0  0  0  0  0  0  0  0  0  0  0
   -4.4666    0.6533   -1.2999 H   0  0  0  0  0  0  0  0  0  0  0  0
   -3.8818   -1.3355   -0.7544 C   0  0  0  0  0  0  0  0  0  0  0  0
   -5.0705   -1.9552   -0.3709 C   0  0  0  0  0  0  0  0  0  0  0  0
   -6.0135   -1.4249   -0.4011 H   0  0  0  0  0  0  0  0  0  0  0  0
   -5.0053   -3.2931    0.0595 C   0  0  0  0  0  0  0  0  0  0  0  0
   -5.9093   -3.8040    0.3642 H   0  0  0  0  0  0  0  0  0  0  0  0
   -3.7678   -3.9734    0.0973 C   0  0  0  0  0  0  0  0  0  0  0  0
   -3.7298   -5.0024    0.4303 H   0  0  0  0  0  0  0  0  0  0  0  0
   -2.5840   -3.3223   -0.2947 C   0  0  0  0  0  0  0  0  0  0  0  0
   -1.6331   -3.8382   -0.2693 H   0  0  0  0  0  0  0  0  0  0  0  0
   -2.6805   -1.9961   -0.7171 C   0  0  0  0  0  0  0  0  0  0  0  0
    1.0417    1.0610    0.3464 C   0  0  0  0  0  0  0  0  0  0  0  0
    0.7586    1.5934   -0.7616 O   0  0  0  0  0  0  0  0  0  0  0  0
    4.0455    3.0601    1.6829 C   0  0  0  0  0  0  0  0  0  0  0  0
    3.7970    3.4622    3.0076 C   0  0  0  0  0  0  0  0  0  0  0  0
    2.7992    3.3994    3.4237 H   0  0  0  0  0  0  0  0  0  0  0  0
    4.8303    3.9693    3.7994 C   0  0  0  0  0  0  0  0  0  0  0  0
    4.6263    4.2713    4.8188 H   0  0  0  0  0  0  0  0  0  0  0  0
    6.1186    4.0949    3.2740 C   0  0  0  0  0  0  0  0  0  0  0  0
    7.4141    4.7330    4.2698 Cl  0  0  0  0  0  0  0  0  0  0  0  0
    6.3725    3.7194    1.9517 C   0  0  0  0  0  0  0  0  0  0  0  0
    7.3710    3.8232    1.5457 H   0  0  0  0  0  0  0  0  0  0  0  0
    5.3426    3.2108    1.1507 C   0  0  0  0  0  0  0  0  0  0  0  0
    5.7179    2.7413   -0.5044 Cl  0  0  0  0  0  0  0  0  0  0  0  0
  1  2  1  0
  2  3  2  0
  3  4  1  0
  4  5  1  0
  5  6  2  0
  5  7  1  0
  7  8  1  1
  7  9  1  0
  9 10  1  1
  9 11  1  0
 11 12  2  0
 11 13  1  0
  9 14  1  0
 14 15  1  0
 14 16  1  0
 14 17  1  0
 17 18  2  0
 18 19  1  0
 18 20  1  0
 20 21  1  0
 20 22  1  0
 22 23  2  0
 23 24  1  0
 23 25  1  0
 25 26  1  0
 25 27  2  0
 27 28  1  0
 27 29  1  0
 29 30  1  0
 29 31  2  0
  7 32  1  0
 32 33  2  0
  2 34  1  0
 34 35  2  0
 35 36  1  0
 35 37  1  0
 37 38  1  0
 37 39  2  0
 39 40  1  0
 39 41  1  0
 41 42  1  0
 41 43  2  0
 43 44  1  0
 32  3  1  0
 43 34  1  0
 31 17  1  0
 31 22  1  0
M  CHG  2   7   1  13  -1
M  END
>  <UniqueID>  (29) 
28

>  <SMILES>  (29) 
O=C([O-])[C@H](Cc1c[nH]c2ccccc12)[N@@H+]1C(=O)/C(=C/c2ccc(Cl)cc2Cl)SC1=S

>  <Energy>  (29) 
106.65450502680835

>  <Genealogy>  (29) 
O=C([O-])[C@H](Cc1c[nH]c2ccccc12)[NH+]1C(=O)/C(=C/c2ccc(Cl)cc2Cl)SC1=S (protonated)
O=C([O-])[C@H](Cc1c[nH]c2ccccc12)[N@@H+]1C(=O)/C(=C/c2ccc(Cl)cc2Cl)SC1=S (chirality)
O=C([O-])[C@H](Cc1c[nH]c2ccccc12)[N@@H+]1C(=O)/C(=C/c2ccc(Cl)cc2Cl)SC1=S (cis-trans isomerization)
O=C([O-])[C@H](Cc1c[nH]c2ccccc12)[N@@H+]1C(=O)/C(=C/c2ccc(Cl)cc2Cl)SC1=S (3D coordinates assigned)
O=C([O-])[C@H](Cc1c[nH]c2ccccc12)[N@@H+]1C(=O)/C(=C/c2ccc(Cl)cc2Cl)SC1=S (nonaromatic ring conformer: 106.65450502680835 kcal/mol)

$$$$
untitled_line_29
     RDKit          3D

 34 36  0  0  0  0  0  0  0  0999 V2000
    2.1870   -2.5830    4.1055 O   0  0  0  0  0  0  0  0  0  0  0  0
    2.8951   -1.8766    3.3390 C   0  0  0  0  0  0  0  0  0  0  0  0
    4.2652   -2.0981    3.2812 O   0  0  0  0  0  1  0  0  0  0  0  0
    2.2735   -0.8375    2.4445 C   0  0  2  0  0  0  0  0  0  0  0  0
    0.9726   -0.2602    3.0396 C   0  0  0  0  0  0  0  0  0  0  0  0
    0.4511    0.8767    2.2077 C   0  0  0  0  0  0  0  0  0  0  0  0
    0.9595    2.1720    2.1756 C   0  0  0  0  0  0  0  0  0  0  0  0
    0.3348    2.9018    1.2239 N   0  0  0  0  0  0  0  0  0  0  0  0
   -0.5554    2.0763    0.6470 C   0  0  0  0  0  0  0  0  0  0  0  0
   -1.4103    2.3669   -0.4153 C   0  0  0  0  0  0  0  0  0  0  0  0
   -2.2429    1.3374   -0.8902 C   0  0  0  0  0  0  0  0  0  0  0  0
   -2.2028    0.0552   -0.2998 C   0  0  0  0  0  0  0  0  0  0  0  0
   -1.3302   -0.2095    0.7708 C   0  0  0  0  0  0  0  0  0  0  0  0
   -0.5148    0.8304    1.2197 C   0  0  0  0  0  0  0  0  0  0  0  0
    2.0413   -1.3949    1.1046 N   0  0  0  0  0  0  0  0  0  0  0  0
    1.2574   -2.5320    0.7718 C   0  0  0  0  0  0  0  0  0  0  0  0
    0.8271   -3.3489    1.6283 O   0  0  0  0  0  0  0  0  0  0  0  0
    0.9713   -2.6461   -0.6881 C   0  0  0  0  0  0  0  0  0  0  0  0
    1.6309   -1.3932   -1.2940 C   0  0  0  0  0  0  0  0  0  0  0  0
    2.2461   -0.7087   -0.1203 C   0  0  0  0  0  0  0  0  0  0  0  0
    2.8685    0.3836   -0.2007 O   0  0  0  0  0  0  0  0  0  0  0  0
    3.0106   -0.0073    2.3688 H   0  0  0  0  0  0  0  0  0  0  0  0
    1.1738    0.1200    4.0648 H   0  0  0  0  0  0  0  0  0  0  0  0
    0.1985   -1.0523    3.1242 H   0  0  0  0  0  0  0  0  0  0  0  0
    1.7617    2.5496    2.7962 H   0  0  0  0  0  0  0  0  0  0  0  0
    0.5266    3.8973    0.9737 H   0  0  0  0  0  0  0  0  0  0  0  0
   -1.4290    3.3509   -0.8657 H   0  0  0  0  0  0  0  0  0  0  0  0
   -2.9168    1.5288   -1.7151 H   0  0  0  0  0  0  0  0  0  0  0  0
   -2.8461   -0.7301   -0.6747 H   0  0  0  0  0  0  0  0  0  0  0  0
   -1.2971   -1.1905    1.2244 H   0  0  0  0  0  0  0  0  0  0  0  0
   -0.1254   -2.6437   -0.8666 H   0  0  0  0  0  0  0  0  0  0  0  0
    1.4282   -3.5731   -1.0958 H   0  0  0  0  0  0  0  0  0  0  0  0
    0.8702   -0.7329   -1.7637 H   0  0  0  0  0  0  0  0  0  0  0  0
    2.4137   -1.6708   -2.0318 H   0  0  0  0  0  0  0  0  0  0  0  0
  1  2  2  0
  2  3  1  0
  2  4  1  0
  4  5  1  0
  5  6  1  0
  6  7  2  0
  7  8  1  0
  8  9  1  0
  9 10  2  0
 10 11  1  0
 11 12  2  0
 12 13  1  0
 13 14  2  0
  4 15  1  0
 15 16  1  0
 16 17  2  0
 16 18  1  0
 18 19  1  0
 19 20  1  0
 20 21  2  0
 14  6  1  0
 20 15  1  0
 14  9  1  0
  4 22  1  6
  5 23  1  0
  5 24  1  0
  7 25  1  0
  8 26  1  0
 10 27  1  0
 11 28  1  0
 12 29  1  0
 13 30  1  0
 18 31  1  0
 18 32  1  0
 19 33  1  0
 19 34  1  0
M  CHG  1   3  -1
M  END
>  <UniqueID>  (30) 
29

>  <SMILES>  (30) 
O=C([O-])[C@H](Cc1c[nH]c2ccccc12)N1C(=O)CCC1=O

>  <Energy>  (30) 
74.73358767474967

>  <Genealogy>  (30) 
O=C([O-])[C@H](Cc1c[nH]c2ccccc12)N1C(=O)CCC1=O (protonated)
O=C([O-])[C@H](Cc1c[nH]c2ccccc12)N1C(=O)CCC1=O (3D coordinates assigned)
O=C([O-])[C@H](Cc1c[nH]c2ccccc12)N1C(=O)CCC1=O (nonaromatic ring conformer: 74.73358767474967 kcal/mol)

$$$$
untitled_line_30
     RDKit          3D

 44 47  0  0  0  0  0  0  0  0999 V2000
   -0.3296   -0.1633   -1.4438 O   0  0  0  0  0  0  0  0  0  0  0  0
   -0.2810    0.0203   -0.1967 C   0  0  0  0  0  0  0  0  0  0  0  0
   -1.3778    0.7696    0.4861 C   0  0  0  0  0  0  0  0  0  0  0  0
   -2.4898   -0.1681    0.8424 C   0  0  0  0  0  0  0  0  0  0  0  0
   -3.6330   -0.4228    0.0888 C   0  0  0  0  0  0  0  0  0  0  0  0
   -4.3742   -1.3935    0.6698 N   0  0  0  0  0  0  0  0  0  0  0  0
   -3.7023   -1.7629    1.7754 C   0  0  0  0  0  0  0  0  0  0  0  0
   -4.0585   -2.7543    2.6893 C   0  0  0  0  0  0  0  0  0  0  0  0
   -3.1874   -2.9985    3.7687 C   0  0  0  0  0  0  0  0  0  0  0  0
   -1.9918   -2.2577    3.9059 C   0  0  0  0  0  0  0  0  0  0  0  0
   -1.6572   -1.2643    2.9672 C   0  0  0  0  0  0  0  0  0  0  0  0
   -2.5435   -1.0412    1.9117 C   0  0  0  0  0  0  0  0  0  0  0  0
    0.7898   -0.5283    0.5818 N   0  0  0  0  0  2  0  0  0  0  0  0
    1.9557   -1.2048    0.0177 C   0  0  1  0  0  0  0  0  0  0  0  0
    3.0969   -0.2023   -0.2261 C   0  0  0  0  0  0  0  0  0  0  0  0
    2.7440    0.7962   -1.2914 C   0  0  0  0  0  0  0  0  0  0  0  0
    2.8360    0.6030   -2.6671 C   0  0  0  0  0  0  0  0  0  0  0  0
    2.3623    1.6844   -3.3292 N   0  0  0  0  0  0  0  0  0  0  0  0
    1.9609    2.5528   -2.3839 C   0  0  0  0  0  0  0  0  0  0  0  0
    1.3743    3.8033   -2.5805 C   0  0  0  0  0  0  0  0  0  0  0  0
    1.0008    4.5406   -1.4418 C   0  0  0  0  0  0  0  0  0  0  0  0
    1.2150    4.0155   -0.1469 C   0  0  0  0  0  0  0  0  0  0  0  0
    1.8093    2.7508    0.0212 C   0  0  0  0  0  0  0  0  0  0  0  0
    2.1749    2.0456   -1.1266 C   0  0  0  0  0  0  0  0  0  0  0  0
    2.4088   -2.2611    0.9809 C   0  0  0  0  0  0  0  0  0  0  0  0
    2.6192   -3.4368    0.5802 O   0  0  0  0  0  0  0  0  0  0  0  0
    2.6209   -1.9438    2.3176 O   0  0  0  0  0  1  0  0  0  0  0  0
   -1.7565    1.5730   -0.1829 H   0  0  0  0  0  0  0  0  0  0  0  0
   -0.9863    1.2539    1.4069 H   0  0  0  0  0  0  0  0  0  0  0  0
   -3.8980    0.0633   -0.8427 H   0  0  0  0  0  0  0  0  0  0  0  0
   -5.2751   -1.7872    0.3172 H   0  0  0  0  0  0  0  0  0  0  0  0
   -4.9730   -3.3219    2.5715 H   0  0  0  0  0  0  0  0  0  0  0  0
   -3.4336   -3.7617    4.4971 H   0  0  0  0  0  0  0  0  0  0  0  0
   -1.3273   -2.4566    4.7382 H   0  0  0  0  0  0  0  0  0  0  0  0
   -0.7410   -0.6961    3.0650 H   0  0  0  0  0  0  0  0  0  0  0  0
    1.6799   -1.6984   -0.9418 H   0  0  0  0  0  0  0  0  0  0  0  0
    4.0082   -0.7516   -0.5503 H   0  0  0  0  0  0  0  0  0  0  0  0
    3.3483    0.3295    0.7179 H   0  0  0  0  0  0  0  0  0  0  0  0
    3.2155   -0.2859   -3.1549 H   0  0  0  0  0  0  0  0  0  0  0  0
    2.3047    1.8078   -4.3651 H   0  0  0  0  0  0  0  0  0  0  0  0
    1.2059    4.1931   -3.5763 H   0  0  0  0  0  0  0  0  0  0  0  0
    0.5419    5.5144   -1.5588 H   0  0  0  0  0  0  0  0  0  0  0  0
    0.9184    4.5892    0.7217 H   0  0  0  0  0  0  0  0  0  0  0  0
    1.9678    2.3412    1.0099 H   0  0  0  0  0  0  0  0  0  0  0  0
  1  2  2  0
  2  3  1  0
  3  4  1  0
  4  5  2  0
  5  6  1  0
  6  7  1  0
  7  8  2  0
  8  9  1  0
  9 10  2  0
 10 11  1  0
 11 12  2  0
  2 13  1  0
 13 14  1  0
 14 15  1  0
 15 16  1  0
 16 17  2  0
 17 18  1  0
 18 19  1  0
 19 20  2  0
 20 21  1  0
 21 22  2  0
 22 23  1  0
 23 24  2  0
 14 25  1  0
 25 26  2  0
 25 27  1  0
 12  4  1  0
 24 16  1  0
 12  7  1  0
 24 19  1  0
  3 28  1  0
  3 29  1  0
  5 30  1  0
  6 31  1  0
  8 32  1  0
  9 33  1  0
 10 34  1  0
 11 35  1  0
 14 36  1  6
 15 37  1  0
 15 38  1  0
 17 39  1  0
 18 40  1  0
 20 41  1  0
 21 42  1  0
 22 43  1  0
 23 44  1  0
M  CHG  2  13  -1  27  -1
M  END
>  <UniqueID>  (31) 
30

>  <SMILES>  (31) 
O=C(Cc1c[nH]c2ccccc12)[N-][C@@H](Cc1c[nH]c2ccccc12)C(=O)[O-]

>  <Energy>  (31) 
105.52973716970283

>  <Genealogy>  (31) 
O=C(Cc1c[nH]c2ccccc12)[N-][C@@H](Cc1c[nH]c2ccccc12)C(=O)[O-] (protonated)
O=C(Cc1c[nH]c2ccccc12)[N-][C@@H](Cc1c[nH]c2ccccc12)C(=O)[O-] (3D coordinates assigned)
O=C(Cc1c[nH]c2ccccc12)[N-][C@@H](Cc1c[nH]c2ccccc12)C(=O)[O-] (optimized conformer: 105.52973716970283 kcal/mol)

$$$$
untitled_line_31
     RDKit          3D

 29 30  0  0  0  0  0  0  0  0999 V2000
    2.5227    0.3049    0.7684 N   0  0  0  0  0  0  0  0  0  0  0  0
    1.3604   -0.3647    1.2639 C   0  0  0  0  0  0  0  0  0  0  0  0
    0.9064   -0.0476    2.3941 O   0  0  0  0  0  0  0  0  0  0  0  0
    0.6945   -1.3939    0.5165 N   0  0  0  0  0  2  0  0  0  0  0  0
    0.9792   -1.8429   -0.8497 C   0  0  1  0  0  0  0  0  0  0  0  0
    0.6665   -0.7369   -1.8800 C   0  0  0  0  0  0  0  0  0  0  0  0
   -0.7639   -0.2873   -1.7817 C   0  0  0  0  0  0  0  0  0  0  0  0
   -1.8798   -0.9896   -2.2277 C   0  0  0  0  0  0  0  0  0  0  0  0
   -3.0139   -0.3218   -1.9171 N   0  0  0  0  0  0  0  0  0  0  0  0
   -2.6249    0.7917   -1.2722 C   0  0  0  0  0  0  0  0  0  0  0  0
   -3.4427    1.7896   -0.7436 C   0  0  0  0  0  0  0  0  0  0  0  0
   -2.8230    2.8713   -0.0921 C   0  0  0  0  0  0  0  0  0  0  0  0
   -1.4160    2.9308    0.0156 C   0  0  0  0  0  0  0  0  0  0  0  0
   -0.6155    1.9094   -0.5271 C   0  0  0  0  0  0  0  0  0  0  0  0
   -1.2580    0.8482   -1.1670 C   0  0  0  0  0  0  0  0  0  0  0  0
    2.3846   -2.3757   -0.9604 C   0  0  0  0  0  0  0  0  0  0  0  0
    3.0178   -2.3042   -2.0473 O   0  0  0  0  0  0  0  0  0  0  0  0
    2.9654   -3.0278    0.1209 O   0  0  0  0  0  1  0  0  0  0  0  0
    2.9743    0.0485   -0.1341 H   0  0  0  0  0  0  0  0  0  0  0  0
    2.9607    1.0662    1.3329 H   0  0  0  0  0  0  0  0  0  0  0  0
    0.3041   -2.6993   -1.0642 H   0  0  0  0  0  0  0  0  0  0  0  0
    1.3447    0.1305   -1.7535 H   0  0  0  0  0  0  0  0  0  0  0  0
    0.8308   -1.1322   -2.9059 H   0  0  0  0  0  0  0  0  0  0  0  0
   -1.8615   -1.9427   -2.7402 H   0  0  0  0  0  0  0  0  0  0  0  0
   -3.9923   -0.6202   -2.1272 H   0  0  0  0  0  0  0  0  0  0  0  0
   -4.5202    1.7341   -0.8291 H   0  0  0  0  0  0  0  0  0  0  0  0
   -3.4286    3.6628    0.3298 H   0  0  0  0  0  0  0  0  0  0  0  0
   -0.9502    3.7681    0.5186 H   0  0  0  0  0  0  0  0  0  0  0  0
    0.4621    1.9547   -0.4488 H   0  0  0  0  0  0  0  0  0  0  0  0
  1  2  1  0
  2  3  2  0
  2  4  1  0
  4  5  1  0
  5  6  1  0
  6  7  1  0
  7  8  2  0
  8  9  1  0
  9 10  1  0
 10 11  2  0
 11 12  1  0
 12 13  2  0
 13 14  1  0
 14 15  2  0
  5 16  1  0
 16 17  2  0
 16 18  1  0
 15  7  1  0
 15 10  1  0
  1 19  1  0
  1 20  1  0
  5 21  1  6
  6 22  1  0
  6 23  1  0
  8 24  1  0
  9 25  1  0
 11 26  1  0
 12 27  1  0
 13 28  1  0
 14 29  1  0
M  CHG  2   4  -1  18  -1
M  END
>  <UniqueID>  (32) 
31

>  <SMILES>  (32) 
NC(=O)[N-][C@@H](Cc1c[nH]c2ccccc12)C(=O)[O-]

>  <Energy>  (32) 
59.29364941759946

>  <Genealogy>  (32) 
NC(=O)[N-][C@@H](Cc1c[nH]c2ccccc12)C(=O)[O-] (protonated)
NC(=O)[N-][C@@H](Cc1c[nH]c2ccccc12)C(=O)[O-] (3D coordinates assigned)
NC(=O)[N-][C@@H](Cc1c[nH]c2ccccc12)C(=O)[O-] (optimized conformer: 59.29364941759946 kcal/mol)

$$$$
untitled_line_32
     RDKit          3D

 32 33  0  0  0  0  0  0  0  0999 V2000
   -0.4281    4.2677    1.5927 O   0  0  0  0  0  0  0  0  0  0  0  0
    0.8199    4.2765    1.4252 C   0  0  0  0  0  0  0  0  0  0  0  0
    1.6492    4.6585    2.4724 O   0  0  0  0  0  1  0  0  0  0  0  0
    1.4058    3.9226    0.0875 C   0  0  0  0  0  0  0  0  0  0  0  0
    2.3934    2.8238    0.1805 N   0  0  0  0  0  4  0  0  0  0  0  0
    1.8254    1.4875   -0.1166 C   0  0  2  0  0  0  0  0  0  0  0  0
    0.8947    0.9920    1.0148 C   0  0  0  0  0  0  0  0  0  0  0  0
    0.2785   -0.3388    0.6874 C   0  0  0  0  0  0  0  0  0  0  0  0
    0.7051   -1.5858    1.1344 C   0  0  0  0  0  0  0  0  0  0  0  0
   -0.0464   -2.5665    0.5837 N   0  0  0  0  0  0  0  0  0  0  0  0
   -0.9364   -1.9498   -0.2134 C   0  0  0  0  0  0  0  0  0  0  0  0
   -1.9154   -2.5455   -1.0075 C   0  0  0  0  0  0  0  0  0  0  0  0
   -2.7349   -1.7042   -1.7825 C   0  0  0  0  0  0  0  0  0  0  0  0
   -2.5578   -0.3029   -1.7488 C   0  0  0  0  0  0  0  0  0  0  0  0
   -1.5603    0.2703   -0.9392 C   0  0  0  0  0  0  0  0  0  0  0  0
   -0.7665   -0.5894   -0.1796 C   0  0  0  0  0  0  0  0  0  0  0  0
    2.9431    0.4970   -0.3382 C   0  0  0  0  0  0  0  0  0  0  0  0
    3.8267    0.3233    0.5429 O   0  0  0  0  0  0  0  0  0  0  0  0
    2.9896   -0.2469   -1.5107 O   0  0  0  0  0  1  0  0  0  0  0  0
    1.9063    4.8377   -0.3002 H   0  0  0  0  0  0  0  0  0  0  0  0
    0.5934    3.6823   -0.6346 H   0  0  0  0  0  0  0  0  0  0  0  0
    2.8650    2.8164    1.1160 H   0  0  0  0  0  0  0  0  0  0  0  0
    3.1380    3.0231   -0.5299 H   0  0  0  0  0  0  0  0  0  0  0  0
    1.2390    1.5391   -1.0624 H   0  0  0  0  0  0  0  0  0  0  0  0
    1.4584    0.9185    1.9704 H   0  0  0  0  0  0  0  0  0  0  0  0
    0.0663    1.7100    1.1701 H   0  0  0  0  0  0  0  0  0  0  0  0
    1.5276   -1.7648    1.8146 H   0  0  0  0  0  0  0  0  0  0  0  0
    0.0560   -3.5941    0.7388 H   0  0  0  0  0  0  0  0  0  0  0  0
   -2.0405   -3.6203   -1.0302 H   0  0  0  0  0  0  0  0  0  0  0  0
   -3.5047   -2.1339   -2.4102 H   0  0  0  0  0  0  0  0  0  0  0  0
   -3.1927    0.3340   -2.3508 H   0  0  0  0  0  0  0  0  0  0  0  0
   -1.4172    1.3427   -0.9100 H   0  0  0  0  0  0  0  0  0  0  0  0
  1  2  2  0
  2  3  1  0
  2  4  1  0
  4  5  1  0
  5  6  1  0
  6  7  1  0
  7  8  1  0
  8  9  2  0
  9 10  1  0
 10 11  1  0
 11 12  2  0
 12 13  1  0
 13 14  2  0
 14 15  1  0
 15 16  2  0
  6 17  1  0
 17 18  2  0
 17 19  1  0
 16  8  1  0
 16 11  1  0
  4 20  1  0
  4 21  1  0
  5 22  1  0
  5 23  1  0
  6 24  1  6
  7 25  1  0
  7 26  1  0
  9 27  1  0
 10 28  1  0
 12 29  1  0
 13 30  1  0
 14 31  1  0
 15 32  1  0
M  CHG  3   3  -1   5   1  19  -1
M  END
>  <UniqueID>  (33) 
32

>  <SMILES>  (33) 
O=C([O-])C[NH2+][C@H](Cc1c[nH]c2ccccc12)C(=O)[O-]

>  <Energy>  (33) 
65.65907787649347

>  <Genealogy>  (33) 
O=C([O-])C[NH2+][C@H](Cc1c[nH]c2ccccc12)C(=O)[O-] (protonated)
O=C([O-])C[NH2+][C@H](Cc1c[nH]c2ccccc12)C(=O)[O-] (3D coordinates assigned)
O=C([O-])C[NH2+][C@H](Cc1c[nH]c2ccccc12)C(=O)[O-] (optimized conformer: 65.65907787649347 kcal/mol)

$$$$
untitled_line_33
     RDKit          3D

 37 38  0  0  0  0  0  0  0  0999 V2000
   -1.9468    1.7545   -2.3740 O   0  0  0  0  0  0  0  0  0  0  0  0
   -0.8358    1.3654   -1.9271 C   0  0  0  0  0  0  0  0  0  0  0  0
    0.0875    2.3682   -1.2937 C   0  0  0  0  0  0  0  0  0  0  0  0
   -0.1294    2.4089    0.2262 C   0  0  0  0  0  0  0  0  0  0  0  0
    0.9026    3.2916    0.9345 C   0  0  0  0  0  0  0  0  0  0  0  0
    0.6746    5.0536    0.5277 S   0  0  0  0  0  0  0  0  0  0  0  0
   -0.5254   -0.0335   -1.9707 N   0  0  0  0  0  2  0  0  0  0  0  0
    0.7558   -0.6323   -1.5952 C   0  0  1  0  0  0  0  0  0  0  0  0
    0.5401   -2.0818   -1.1412 C   0  0  0  0  0  0  0  0  0  0  0  0
   -0.3377   -2.1328    0.0766 C   0  0  0  0  0  0  0  0  0  0  0  0
   -1.6990   -2.4214    0.1050 C   0  0  0  0  0  0  0  0  0  0  0  0
   -2.1899   -2.2604    1.3551 N   0  0  0  0  0  0  0  0  0  0  0  0
   -1.1543   -1.8590    2.1125 C   0  0  0  0  0  0  0  0  0  0  0  0
   -1.1762   -1.5279    3.4667 C   0  0  0  0  0  0  0  0  0  0  0  0
    0.0244   -1.0916    4.0566 C   0  0  0  0  0  0  0  0  0  0  0  0
    1.2054   -0.9939    3.2878 C   0  0  0  0  0  0  0  0  0  0  0  0
    1.1973   -1.3329    1.9227 C   0  0  0  0  0  0  0  0  0  0  0  0
   -0.0069   -1.7666    1.3672 C   0  0  0  0  0  0  0  0  0  0  0  0
    1.7000   -0.5826   -2.7594 C   0  0  0  0  0  0  0  0  0  0  0  0
    1.3325   -0.9807   -3.8968 O   0  0  0  0  0  0  0  0  0  0  0  0
    2.9990   -0.1238   -2.5797 O   0  0  0  0  0  1  0  0  0  0  0  0
    1.1423    2.1186   -1.5334 H   0  0  0  0  0  0  0  0  0  0  0  0
   -0.1166    3.3716   -1.7258 H   0  0  0  0  0  0  0  0  0  0  0  0
   -0.0480    1.3819    0.6437 H   0  0  0  0  0  0  0  0  0  0  0  0
   -1.1541    2.7783    0.4499 H   0  0  0  0  0  0  0  0  0  0  0  0
    1.9310    2.9803    0.6526 H   0  0  0  0  0  0  0  0  0  0  0  0
    0.7965    3.1678    2.0334 H   0  0  0  0  0  0  0  0  0  0  0  0
   -0.5676    5.1272    1.1866 H   0  0  0  0  0  0  0  0  0  0  0  0
    1.2061   -0.0741   -0.7482 H   0  0  0  0  0  0  0  0  0  0  0  0
    1.5190   -2.5486   -0.8956 H   0  0  0  0  0  0  0  0  0  0  0  0
    0.0754   -2.6743   -1.9600 H   0  0  0  0  0  0  0  0  0  0  0  0
   -2.3005   -2.7098   -0.7472 H   0  0  0  0  0  0  0  0  0  0  0  0
   -3.1794   -2.3963    1.6601 H   0  0  0  0  0  0  0  0  0  0  0  0
   -2.0883   -1.5969    4.0453 H   0  0  0  0  0  0  0  0  0  0  0  0
    0.0418   -0.8248    5.1052 H   0  0  0  0  0  0  0  0  0  0  0  0
    2.1220   -0.6529    3.7511 H   0  0  0  0  0  0  0  0  0  0  0  0
    2.0974   -1.2552    1.3269 H   0  0  0  0  0  0  0  0  0  0  0  0
  1  2  2  0
  2  3  1  0
  3  4  1  0
  4  5  1  0
  5  6  1  0
  2  7  1  0
  7  8  1  0
  8  9  1  0
  9 10  1  0
 10 11  2  0
 11 12  1  0
 12 13  1  0
 13 14  2  0
 14 15  1  0
 15 16  2  0
 16 17  1  0
 17 18  2  0
  8 19  1  0
 19 20  2  0
 19 21  1  0
 18 10  1  0
 18 13  1  0
  3 22  1  0
  3 23  1  0
  4 24  1  0
  4 25  1  0
  5 26  1  0
  5 27  1  0
  6 28  1  0
  8 29  1  1
  9 30  1  0
  9 31  1  0
 11 32  1  0
 12 33  1  0
 14 34  1  0
 15 35  1  0
 16 36  1  0
 17 37  1  0
M  CHG  2   7  -1  21  -1
M  END
>  <UniqueID>  (34) 
33

>  <SMILES>  (34) 
O=C(CCCS)[N-][C@@H](Cc1c[nH]c2ccccc12)C(=O)[O-]

>  <Energy>  (34) 
58.13916588550778

>  <Genealogy>  (34) 
O=C(CCCS)[N-][C@@H](Cc1c[nH]c2ccccc12)C(=O)[O-] (protonated)
O=C(CCCS)[N-][C@@H](Cc1c[nH]c2ccccc12)C(=O)[O-] (3D coordinates assigned)
O=C(CCCS)[N-][C@@H](Cc1c[nH]c2ccccc12)C(=O)[O-] (optimized conformer: 58.13916588550778 kcal/mol)

$$$$
untitled_line_34
     RDKit          3D

 44 47  0  0  0  0  0  0  0  0999 V2000
    2.8576    0.7002    2.1150 H   0  0  0  0  0  0  0  0  0  0  0  0
    2.9578    0.2937    1.1154 C   0  0  0  0  0  0  0  0  0  0  0  0
    2.0410   -0.5844    0.6792 C   0  0  0  0  0  0  0  0  0  0  0  0
    2.1784   -1.5417   -0.8206 S   0  0  0  0  0  0  0  0  0  0  0  0
    0.9878   -2.6710   -0.0867 C   0  0  0  0  0  0  0  0  0  0  0  0
    1.1838   -4.0882   -0.2563 S   0  0  0  0  0  0  0  0  0  0  0  0
    0.1742   -2.1515    0.9984 N   0  0  2  0  0  4  0  0  0  0  0  0
    0.1376   -2.8324    1.7965 H   0  0  0  0  0  0  0  0  0  0  0  0
   -1.2097   -1.7976    0.5761 C   0  0  2  0  0  0  0  0  0  0  0  0
   -1.6992   -1.2577    1.4207 H   0  0  0  0  0  0  0  0  0  0  0  0
   -2.0276   -3.0470    0.3421 C   0  0  0  0  0  0  0  0  0  0  0  0
   -2.6935   -3.5470    1.2867 O   0  0  0  0  0  0  0  0  0  0  0  0
   -2.0150   -3.6840   -0.8936 O   0  0  0  0  0  1  0  0  0  0  0  0
   -1.2591   -0.8523   -0.6566 C   0  0  0  0  0  0  0  0  0  0  0  0
   -0.9135   -1.3802   -1.5716 H   0  0  0  0  0  0  0  0  0  0  0  0
   -0.5825    0.0143   -0.5043 H   0  0  0  0  0  0  0  0  0  0  0  0
   -2.6438   -0.3176   -0.8845 C   0  0  0  0  0  0  0  0  0  0  0  0
   -3.5837   -0.7968   -1.7921 C   0  0  0  0  0  0  0  0  0  0  0  0
   -3.4304   -1.6096   -2.4899 H   0  0  0  0  0  0  0  0  0  0  0  0
   -4.7426   -0.1083   -1.6782 N   0  0  0  0  0  0  0  0  0  0  0  0
   -5.6156   -0.2584   -2.2312 H   0  0  0  0  0  0  0  0  0  0  0  0
   -4.5446    0.7941   -0.7013 C   0  0  0  0  0  0  0  0  0  0  0  0
   -5.4599    1.7249   -0.2117 C   0  0  0  0  0  0  0  0  0  0  0  0
   -6.4598    1.7951   -0.6198 H   0  0  0  0  0  0  0  0  0  0  0  0
   -5.0429    2.5698    0.8335 C   0  0  0  0  0  0  0  0  0  0  0  0
   -5.7285    3.3036    1.2369 H   0  0  0  0  0  0  0  0  0  0  0  0
   -3.7367    2.4647    1.3614 C   0  0  0  0  0  0  0  0  0  0  0  0
   -3.4278    3.1184    2.1666 H   0  0  0  0  0  0  0  0  0  0  0  0
   -2.8348    1.5147    0.8485 C   0  0  0  0  0  0  0  0  0  0  0  0
   -1.8333    1.4266    1.2495 H   0  0  0  0  0  0  0  0  0  0  0  0
   -3.2763    0.6942   -0.1898 C   0  0  0  0  0  0  0  0  0  0  0  0
    0.8881   -0.9999    1.4739 C   0  0  0  0  0  0  0  0  0  0  0  0
    0.5518   -0.4090    2.5373 O   0  0  0  0  0  0  0  0  0  0  0  0
    4.1504    0.6997    0.3432 C   0  0  0  0  0  0  0  0  0  0  0  0
    4.0585    1.0781   -1.0085 C   0  0  0  0  0  0  0  0  0  0  0  0
    3.1042    1.0753   -1.5194 H   0  0  0  0  0  0  0  0  0  0  0  0
    5.1987    1.4921   -1.7040 C   0  0  0  0  0  0  0  0  0  0  0  0
    5.1180    1.7767   -2.7454 H   0  0  0  0  0  0  0  0  0  0  0  0
    6.4350    1.5498   -1.0532 C   0  0  0  0  0  0  0  0  0  0  0  0
    7.8638    2.0717   -1.9267 Cl  0  0  0  0  0  0  0  0  0  0  0  0
    6.5282    1.2030    0.2984 C   0  0  0  0  0  0  0  0  0  0  0  0
    7.4809    1.2566    0.8096 H   0  0  0  0  0  0  0  0  0  0  0  0
    5.3893    0.7893    0.9964 C   0  0  0  0  0  0  0  0  0  0  0  0
    5.4760    0.5279    2.0442 H   0  0  0  0  0  0  0  0  0  0  0  0
  1  2  1  0
  2  3  2  0
  3  4  1  0
  4  5  1  0
  5  6  2  0
  5  7  1  0
  7  8  1  1
  7  9  1  0
  9 10  1  1
  9 11  1  0
 11 12  2  0
 11 13  1  0
  9 14  1  0
 14 15  1  0
 14 16  1  0
 14 17  1  0
 17 18  2  0
 18 19  1  0
 18 20  1  0
 20 21  1  0
 20 22  1  0
 22 23  2  0
 23 24  1  0
 23 25  1  0
 25 26  1  0
 25 27  2  0
 27 28  1  0
 27 29  1  0
 29 30  1  0
 29 31  2  0
  7 32  1  0
 32 33  2  0
  2 34  1  0
 34 35  2  0
 35 36  1  0
 35 37  1  0
 37 38  1  0
 37 39  2  0
 39 40  1  0
 39 41  1  0
 41 42  1  0
 41 43  2  0
 43 44  1  0
 32  3  1  0
 43 34  1  0
 31 17  1  0
 31 22  1  0
M  CHG  2   7   1  13  -1
M  END
>  <UniqueID>  (35) 
34

>  <SMILES>  (35) 
O=C([O-])[C@H](Cc1c[nH]c2ccccc12)[N@@H+]1C(=O)/C(=C/c2ccc(Cl)cc2)SC1=S

>  <Energy>  (35) 
105.10533787296708

>  <Genealogy>  (35) 
O=C([O-])[C@H](Cc1c[nH]c2ccccc12)[NH+]1C(=O)/C(=C/c2ccc(Cl)cc2)SC1=S (protonated)
O=C([O-])[C@H](Cc1c[nH]c2ccccc12)[N@@H+]1C(=O)/C(=C/c2ccc(Cl)cc2)SC1=S (chirality)
O=C([O-])[C@H](Cc1c[nH]c2ccccc12)[N@@H+]1C(=O)/C(=C/c2ccc(Cl)cc2)SC1=S (cis-trans isomerization)
O=C([O-])[C@H](Cc1c[nH]c2ccccc12)[N@@H+]1C(=O)/C(=C/c2ccc(Cl)cc2)SC1=S (3D coordinates assigned)
O=C([O-])[C@H](Cc1c[nH]c2ccccc12)[N@@H+]1C(=O)/C(=C/c2ccc(Cl)cc2)SC1=S (nonaromatic ring conformer: 105.10533787296708 kcal/mol)

$$$$
untitled_line_35
     RDKit          3D

 52 55  0  0  0  0  0  0  0  0999 V2000
    0.8700   -1.8742   -2.5748 O   0  0  0  0  0  0  0  0  0  0  0  0
    0.7025   -0.7296   -2.0756 C   0  0  0  0  0  0  0  0  0  0  0  0
    0.5741    0.3676   -2.9178 O   0  0  0  0  0  1  0  0  0  0  0  0
    0.5768   -0.5420   -0.5856 C   0  0  2  0  0  0  0  0  0  0  0  0
    1.5327   -1.4711    0.2112 C   0  0  0  0  0  0  0  0  0  0  0  0
    2.9659   -1.0636    0.0253 C   0  0  0  0  0  0  0  0  0  0  0  0
    3.8662   -1.5835   -0.8999 C   0  0  0  0  0  0  0  0  0  0  0  0
    5.0411   -0.9155   -0.8416 N   0  0  0  0  0  0  0  0  0  0  0  0
    4.8858    0.0281    0.1035 C   0  0  0  0  0  0  0  0  0  0  0  0
    5.8190    0.9817    0.5079 C   0  0  0  0  0  0  0  0  0  0  0  0
    5.4342    1.8966    1.5055 C   0  0  0  0  0  0  0  0  0  0  0  0
    4.1396    1.8395    2.0685 C   0  0  0  0  0  0  0  0  0  0  0  0
    3.2187    0.8663    1.6402 C   0  0  0  0  0  0  0  0  0  0  0  0
    3.6305   -0.0283    0.6522 C   0  0  0  0  0  0  0  0  0  0  0  0
   -0.8507   -0.6738   -0.1893 N   0  0  0  0  0  0  0  0  0  0  0  0
   -1.1832    0.1326    1.0072 C   0  0  0  0  0  0  0  0  0  0  0  0
   -1.4535    1.5559    0.6015 C   0  0  0  0  0  0  0  0  0  0  0  0
   -0.5642    2.5851    0.9542 C   0  0  0  0  0  0  0  0  0  0  0  0
   -0.8133    3.8998    0.5484 C   0  0  0  0  0  0  0  0  0  0  0  0
   -1.9485    4.1956   -0.2115 C   0  0  0  0  0  0  0  0  0  0  0  0
   -2.8366    3.1768   -0.5675 C   0  0  0  0  0  0  0  0  0  0  0  0
   -2.5908    1.8607   -0.1647 C   0  0  0  0  0  0  0  0  0  0  0  0
   -1.3253   -2.0701   -0.0722 C   0  0  0  0  0  0  0  0  0  0  0  0
   -2.8059   -2.1342   -0.3375 C   0  0  0  0  0  0  0  0  0  0  0  0
   -3.3048   -1.7935   -1.6058 C   0  0  0  0  0  0  0  0  0  0  0  0
   -4.6802   -1.8296   -1.8544 C   0  0  0  0  0  0  0  0  0  0  0  0
   -5.5656   -2.2058   -0.8406 C   0  0  0  0  0  0  0  0  0  0  0  0
   -5.0770   -2.5462    0.4238 C   0  0  0  0  0  0  0  0  0  0  0  0
   -3.7021   -2.5109    0.6772 C   0  0  0  0  0  0  0  0  0  0  0  0
    0.9046    0.5045   -0.3916 H   0  0  0  0  0  0  0  0  0  0  0  0
    1.2968   -1.4272    1.2945 H   0  0  0  0  0  0  0  0  0  0  0  0
    1.4146   -2.5306   -0.1013 H   0  0  0  0  0  0  0  0  0  0  0  0
    3.6663   -2.3946   -1.5878 H   0  0  0  0  0  0  0  0  0  0  0  0
    5.8883   -1.0890   -1.4266 H   0  0  0  0  0  0  0  0  0  0  0  0
    6.8069    1.0206    0.0671 H   0  0  0  0  0  0  0  0  0  0  0  0
    6.1343    2.6498    1.8424 H   0  0  0  0  0  0  0  0  0  0  0  0
    3.8539    2.5494    2.8337 H   0  0  0  0  0  0  0  0  0  0  0  0
    2.2259    0.8157    2.0671 H   0  0  0  0  0  0  0  0  0  0  0  0
   -0.3746    0.0799    1.7685 H   0  0  0  0  0  0  0  0  0  0  0  0
   -2.1010   -0.2464    1.5087 H   0  0  0  0  0  0  0  0  0  0  0  0
    0.3217    2.3712    1.5380 H   0  0  0  0  0  0  0  0  0  0  0  0
   -0.1250    4.6892    0.8214 H   0  0  0  0  0  0  0  0  0  0  0  0
   -2.1393    5.2137   -0.5254 H   0  0  0  0  0  0  0  0  0  0  0  0
   -3.7145    3.4066   -1.1575 H   0  0  0  0  0  0  0  0  0  0  0  0
   -3.2838    1.0788   -0.4506 H   0  0  0  0  0  0  0  0  0  0  0  0
   -0.8352   -2.7220   -0.8257 H   0  0  0  0  0  0  0  0  0  0  0  0
   -1.0748   -2.4871    0.9297 H   0  0  0  0  0  0  0  0  0  0  0  0
   -2.6282   -1.4945   -2.3973 H   0  0  0  0  0  0  0  0  0  0  0  0
   -5.0596   -1.5639   -2.8326 H   0  0  0  0  0  0  0  0  0  0  0  0
   -6.6301   -2.2322   -1.0345 H   0  0  0  0  0  0  0  0  0  0  0  0
   -5.7639   -2.8352    1.2087 H   0  0  0  0  0  0  0  0  0  0  0  0
   -3.3388   -2.7714    1.6635 H   0  0  0  0  0  0  0  0  0  0  0  0
  1  2  2  0
  2  3  1  0
  2  4  1  0
  4  5  1  0
  5  6  1  0
  6  7  2  0
  7  8  1  0
  8  9  1  0
  9 10  2  0
 10 11  1  0
 11 12  2  0
 12 13  1  0
 13 14  2  0
  4 15  1  0
 15 16  1  0
 16 17  1  0
 17 18  2  0
 18 19  1  0
 19 20  2  0
 20 21  1  0
 21 22  2  0
 15 23  1  0
 23 24  1  0
 24 25  2  0
 25 26  1  0
 26 27  2  0
 27 28  1  0
 28 29  2  0
 14  6  1  0
 22 17  1  0
 29 24  1  0
 14  9  1  0
  4 30  1  6
  5 31  1  0
  5 32  1  0
  7 33  1  0
  8 34  1  0
 10 35  1  0
 11 36  1  0
 12 37  1  0
 13 38  1  0
 16 39  1  0
 16 40  1  0
 18 41  1  0
 19 42  1  0
 20 43  1  0
 21 44  1  0
 22 45  1  0
 23 46  1  0
 23 47  1  0
 25 48  1  0
 26 49  1  0
 27 50  1  0
 28 51  1  0
 29 52  1  0
M  CHG  1   3  -1
M  END
>  <UniqueID>  (36) 
35

>  <SMILES>  (36) 
O=C([O-])[C@H](Cc1c[nH]c2ccccc12)N(Cc1ccccc1)Cc1ccccc1

>  <Energy>  (36) 
90.94178569133203

>  <Genealogy>  (36) 
O=C([O-])[C@H](Cc1c[nH]c2ccccc12)N(Cc1ccccc1)Cc1ccccc1 (protonated)
O=C([O-])[C@H](Cc1c[nH]c2ccccc12)N(Cc1ccccc1)Cc1ccccc1 (3D coordinates assigned)
O=C([O-])[C@H](Cc1c[nH]c2ccccc12)N(Cc1ccccc1)Cc1ccccc1 (optimized conformer: 90.94178569133203 kcal/mol)

$$$$
untitled_line_36
     RDKit          3D

 40 43  0  0  0  0  0  0  0  0999 V2000
    0.4491    0.8933    5.3002 O   0  0  0  0  0  0  0  0  0  0  0  0
    1.1692    0.2936    4.4592 C   0  0  0  0  0  0  0  0  0  0  0  0
    2.5206    0.1083    4.7295 O   0  0  0  0  0  1  0  0  0  0  0  0
    0.5712   -0.1616    3.1550 C   0  0  2  0  0  0  0  0  0  0  0  0
    1.3446   -1.3578    2.5545 C   0  0  0  0  0  0  0  0  0  0  0  0
    0.6353   -1.9295    1.3384 C   0  0  0  0  0  0  0  0  0  0  0  0
   -0.4578   -2.7777    1.5746 C   0  0  0  0  0  0  0  0  0  0  0  0
   -1.2167   -3.2654    0.5129 C   0  0  0  0  0  0  0  0  0  0  0  0
   -2.1944   -4.0269    0.7411 O   0  0  0  0  0  0  0  0  0  0  0  0
   -0.9124   -2.9160   -0.7639 N   0  0  0  0  0  0  0  0  0  0  0  0
    0.1366   -2.0931   -1.0501 C   0  0  0  0  0  0  0  0  0  0  0  0
    0.4000   -1.7406   -2.3838 C   0  0  0  0  0  0  0  0  0  0  0  0
    1.4635   -0.8948   -2.6940 C   0  0  0  0  0  0  0  0  0  0  0  0
    2.2831   -0.4043   -1.6806 C   0  0  0  0  0  0  0  0  0  0  0  0
    2.0425   -0.7497   -0.3491 C   0  0  0  0  0  0  0  0  0  0  0  0
    0.9555   -1.5846   -0.0046 C   0  0  0  0  0  0  0  0  0  0  0  0
    0.5032    0.9606    2.2112 N   0  0  0  0  0  0  0  0  0  0  0  0
   -0.5069    1.1433    1.2121 C   0  0  0  0  0  0  0  0  0  0  0  0
   -1.6168    0.5476    1.2096 O   0  0  0  0  0  0  0  0  0  0  0  0
   -0.0435    2.0681    0.1859 C   0  0  0  0  0  0  0  0  0  0  0  0
   -0.6456    2.4851   -0.9995 C   0  0  0  0  0  0  0  0  0  0  0  0
    0.0841    3.3395   -1.8451 C   0  0  0  0  0  0  0  0  0  0  0  0
    1.3913    3.7442   -1.4975 C   0  0  0  0  0  0  0  0  0  0  0  0
    1.9812    3.2978   -0.3015 C   0  0  0  0  0  0  0  0  0  0  0  0
    1.2322    2.4622    0.5249 C   0  0  0  0  0  0  0  0  0  0  0  0
    1.5887    1.7853    1.7660 C   0  0  0  0  0  0  0  0  0  0  0  0
    2.7056    1.8639    2.3426 O   0  0  0  0  0  0  0  0  0  0  0  0
   -0.4647   -0.5015    3.3795 H   0  0  0  0  0  0  0  0  0  0  0  0
    1.4114   -2.1563    3.3269 H   0  0  0  0  0  0  0  0  0  0  0  0
    2.3954   -1.0841    2.3448 H   0  0  0  0  0  0  0  0  0  0  0  0
   -0.7307   -3.0472    2.5888 H   0  0  0  0  0  0  0  0  0  0  0  0
   -1.5068   -3.2898   -1.5397 H   0  0  0  0  0  0  0  0  0  0  0  0
   -0.2239   -2.1178   -3.1847 H   0  0  0  0  0  0  0  0  0  0  0  0
    1.6558   -0.6227   -3.7238 H   0  0  0  0  0  0  0  0  0  0  0  0
    3.1105    0.2489   -1.9269 H   0  0  0  0  0  0  0  0  0  0  0  0
    2.7154   -0.3434    0.3868 H   0  0  0  0  0  0  0  0  0  0  0  0
   -1.6401    2.1530   -1.2677 H   0  0  0  0  0  0  0  0  0  0  0  0
   -0.3557    3.6810   -2.7729 H   0  0  0  0  0  0  0  0  0  0  0  0
    1.9473    4.3940   -2.1607 H   0  0  0  0  0  0  0  0  0  0  0  0
    2.9905    3.5852   -0.0377 H   0  0  0  0  0  0  0  0  0  0  0  0
  1  2  2  0
  2  3  1  0
  2  4  1  0
  4  5  1  0
  5  6  1  0
  6  7  2  0
  7  8  1  0
  8  9  2  0
  8 10  1  0
 10 11  1  0
 11 12  2  0
 12 13  1  0
 13 14  2  0
 14 15  1  0
 15 16  2  0
  4 17  1  0
 17 18  1  0
 18 19  2  0
 18 20  1  0
 20 21  2  0
 21 22  1  0
 22 23  2  0
 23 24  1  0
 24 25  2  0
 25 26  1  0
 26 27  2  0
 16  6  1  0
 26 17  1  0
 16 11  1  0
 25 20  1  0
  4 28  1  1
  5 29  1  0
  5 30  1  0
  7 31  1  0
 10 32  1  0
 12 33  1  0
 13 34  1  0
 14 35  1  0
 15 36  1  0
 21 37  1  0
 22 38  1  0
 23 39  1  0
 24 40  1  0
M  CHG  1   3  -1
M  END
>  <UniqueID>  (37) 
36

>  <SMILES>  (37) 
O=C([O-])[C@H](Cc1cc(=O)[nH]c2ccccc12)N1C(=O)c2ccccc2C1=O

>  <Energy>  (37) 
78.93500771252725

>  <Genealogy>  (37) 
O=C([O-])[C@H](Cc1cc(=O)[nH]c2ccccc12)N1C(=O)c2ccccc2C1=O (protonated)
O=C([O-])[C@H](Cc1cc(=O)[nH]c2ccccc12)N1C(=O)c2ccccc2C1=O (3D coordinates assigned)
O=C([O-])[C@H](Cc1cc(=O)[nH]c2ccccc12)N1C(=O)c2ccccc2C1=O (nonaromatic ring conformer: 78.93500771252725 kcal/mol)

$$$$
untitled_line_37
     RDKit          3D

 40 43  0  0  0  0  0  0  0  0999 V2000
   -1.2380    1.4557   -1.7019 N   0  0  0  0  0  0  0  0  0  0  0  0
   -1.1830    0.2869   -0.8834 C   0  0  0  0  0  0  0  0  0  0  0  0
   -2.0197   -0.6375   -1.0666 O   0  0  0  0  0  0  0  0  0  0  0  0
   -0.0999    0.1355    0.1549 C   0  0  2  0  0  0  0  0  0  0  0  0
    1.0318   -0.7819   -0.3440 C   0  0  0  0  0  0  0  0  0  0  0  0
    1.8118   -0.1340   -1.4520 C   0  0  0  0  0  0  0  0  0  0  0  0
    1.6264   -0.3238   -2.8183 C   0  0  0  0  0  0  0  0  0  0  0  0
    2.4497    0.4856   -3.5231 N   0  0  0  0  0  0  0  0  0  0  0  0
    3.1437    1.1923   -2.6139 C   0  0  0  0  0  0  0  0  0  0  0  0
    4.1015    2.1753   -2.8592 C   0  0  0  0  0  0  0  0  0  0  0  0
    4.6910    2.8101   -1.7504 C   0  0  0  0  0  0  0  0  0  0  0  0
    4.3111    2.4552   -0.4368 C   0  0  0  0  0  0  0  0  0  0  0  0
    3.3397    1.4611   -0.2196 C   0  0  0  0  0  0  0  0  0  0  0  0
    2.7782    0.8457   -1.3385 C   0  0  0  0  0  0  0  0  0  0  0  0
   -0.6642   -0.3590    1.4174 N   0  0  0  0  0  0  0  0  0  0  0  0
   -1.1764   -1.6666    1.7130 C   0  0  0  0  0  0  0  0  0  0  0  0
   -1.0260   -2.6770    0.9767 O   0  0  0  0  0  0  0  0  0  0  0  0
   -1.9185   -1.6439    2.9679 C   0  0  0  0  0  0  0  0  0  0  0  0
   -2.5809   -2.6619    3.6518 C   0  0  0  0  0  0  0  0  0  0  0  0
   -3.2340   -2.3334    4.8534 C   0  0  0  0  0  0  0  0  0  0  0  0
   -3.2149   -1.0076    5.3387 C   0  0  0  0  0  0  0  0  0  0  0  0
   -2.5427    0.0022    4.6270 C   0  0  0  0  0  0  0  0  0  0  0  0
   -1.9003   -0.3504    3.4413 C   0  0  0  0  0  0  0  0  0  0  0  0
   -1.1460    0.4572    2.4906 C   0  0  0  0  0  0  0  0  0  0  0  0
   -0.9549    1.6992    2.5776 O   0  0  0  0  0  0  0  0  0  0  0  0
   -1.9794    1.5532   -2.4305 H   0  0  0  0  0  0  0  0  0  0  0  0
   -0.5313    2.2171   -1.5964 H   0  0  0  0  0  0  0  0  0  0  0  0
    0.3427    1.1371    0.3525 H   0  0  0  0  0  0  0  0  0  0  0  0
    0.6225   -1.7481   -0.7078 H   0  0  0  0  0  0  0  0  0  0  0  0
    1.7243   -1.0052    0.4962 H   0  0  0  0  0  0  0  0  0  0  0  0
    0.9164   -1.0044   -3.2700 H   0  0  0  0  0  0  0  0  0  0  0  0
    2.5167    0.5565   -4.5627 H   0  0  0  0  0  0  0  0  0  0  0  0
    4.3811    2.4451   -3.8694 H   0  0  0  0  0  0  0  0  0  0  0  0
    5.4379    3.5777   -1.9053 H   0  0  0  0  0  0  0  0  0  0  0  0
    4.7687    2.9528    0.4083 H   0  0  0  0  0  0  0  0  0  0  0  0
    3.0402    1.1874    0.7838 H   0  0  0  0  0  0  0  0  0  0  0  0
   -2.5939   -3.6746    3.2703 H   0  0  0  0  0  0  0  0  0  0  0  0
   -3.7563   -3.1018    5.4084 H   0  0  0  0  0  0  0  0  0  0  0  0
   -3.7227   -0.7661    6.2634 H   0  0  0  0  0  0  0  0  0  0  0  0
   -2.5264    1.0218    4.9893 H   0  0  0  0  0  0  0  0  0  0  0  0
  1  2  1  0
  2  3  2  0
  2  4  1  0
  4  5  1  0
  5  6  1  0
  6  7  2  0
  7  8  1  0
  8  9  1  0
  9 10  2  0
 10 11  1  0
 11 12  2  0
 12 13  1  0
 13 14  2  0
  4 15  1  0
 15 16  1  0
 16 17  2  0
 16 18  1  0
 18 19  2  0
 19 20  1  0
 20 21  2  0
 21 22  1  0
 22 23  2  0
 23 24  1  0
 24 25  2  0
 14  6  1  0
 24 15  1  0
 14  9  1  0
 23 18  1  0
  1 26  1  0
  1 27  1  0
  4 28  1  1
  5 29  1  0
  5 30  1  0
  7 31  1  0
  8 32  1  0
 10 33  1  0
 11 34  1  0
 12 35  1  0
 13 36  1  0
 19 37  1  0
 20 38  1  0
 21 39  1  0
 22 40  1  0
M  END
>  <UniqueID>  (38) 
37

>  <SMILES>  (38) 
NC(=O)[C@H](Cc1c[nH]c2ccccc12)N1C(=O)c2ccccc2C1=O

>  <Energy>  (38) 
105.25183507950803

>  <Genealogy>  (38) 
NC(=O)[C@H](Cc1c[nH]c2ccccc12)N1C(=O)c2ccccc2C1=O (3D coordinates assigned)
NC(=O)[C@H](Cc1c[nH]c2ccccc12)N1C(=O)c2ccccc2C1=O (nonaromatic ring conformer: 105.25183507950803 kcal/mol)

$$$$
untitled_line_38
     RDKit          3D

 30 32  0  0  0  0  0  0  0  0999 V2000
    1.6045    1.6802   -1.5303 O   0  0  0  0  0  0  0  0  0  0  0  0
    0.8489    1.7713   -0.5262 C   0  0  0  0  0  0  0  0  0  0  0  0
    0.3773    3.0184   -0.1359 O   0  0  0  0  0  1  0  0  0  0  0  0
    0.4854    0.5465    0.2744 C   0  0  2  0  0  0  0  0  0  0  0  0
    1.6961    0.1418    1.0866 C   0  0  0  0  0  0  0  0  0  0  0  0
    2.8873   -0.3946    0.5985 C   0  0  0  0  0  0  0  0  0  0  0  0
    3.7571   -0.6165    1.6092 N   0  0  0  0  0  0  0  0  0  0  0  0
    3.1320   -0.2215    2.7312 C   0  0  0  0  0  0  0  0  0  0  0  0
    3.6349   -0.2538    4.0311 C   0  0  0  0  0  0  0  0  0  0  0  0
    2.8090    0.2162    5.0679 C   0  0  0  0  0  0  0  0  0  0  0  0
    1.5142    0.7036    4.7855 C   0  0  0  0  0  0  0  0  0  0  0  0
    1.0324    0.7252    3.4640 C   0  0  0  0  0  0  0  0  0  0  0  0
    1.8734    0.2508    2.4549 C   0  0  0  0  0  0  0  0  0  0  0  0
    0.0186   -0.5622   -0.5995 N   0  0  0  0  0  4  0  0  0  0  0  0
   -0.4493   -1.6852    0.1718 C   0  0  0  0  0  0  0  0  0  0  0  0
    0.3108   -2.4189    0.8591 O   0  0  0  0  0  0  0  0  0  0  0  0
   -1.8762   -1.9338    0.0189 C   0  0  0  0  0  0  0  0  0  0  0  0
   -2.3366   -1.0567   -0.8488 C   0  0  0  0  0  0  0  0  0  0  0  0
   -1.2133   -0.2296   -1.2677 C   0  0  0  0  0  0  0  0  0  0  0  0
   -1.2975    0.6467   -2.1695 O   0  0  0  0  0  0  0  0  0  0  0  0
   -0.3353    0.8318    0.9714 H   0  0  0  0  0  0  0  0  0  0  0  0
    3.1053   -0.6081   -0.4397 H   0  0  0  0  0  0  0  0  0  0  0  0
    4.7205   -1.0113    1.5291 H   0  0  0  0  0  0  0  0  0  0  0  0
    4.6294   -0.6278    4.2376 H   0  0  0  0  0  0  0  0  0  0  0  0
    3.1688    0.2049    6.0885 H   0  0  0  0  0  0  0  0  0  0  0  0
    0.8879    1.0636    5.5913 H   0  0  0  0  0  0  0  0  0  0  0  0
    0.0411    1.0998    3.2486 H   0  0  0  0  0  0  0  0  0  0  0  0
    0.7380   -0.8712   -1.2947 H   0  0  0  0  0  0  0  0  0  0  0  0
   -2.4562   -2.7095    0.5011 H   0  0  0  0  0  0  0  0  0  0  0  0
   -3.3583   -0.9912   -1.1987 H   0  0  0  0  0  0  0  0  0  0  0  0
  1  2  2  0
  2  3  1  0
  2  4  1  0
  4  5  1  0
  5  6  2  0
  6  7  1  0
  7  8  1  0
  8  9  2  0
  9 10  1  0
 10 11  2  0
 11 12  1  0
 12 13  2  0
  4 14  1  0
 14 15  1  0
 15 16  2  0
 15 17  1  0
 17 18  2  0
 18 19  1  0
 19 20  2  0
 13  5  1  0
 19 14  1  0
 13  8  1  0
  4 21  1  1
  6 22  1  0
  7 23  1  0
  9 24  1  0
 10 25  1  0
 11 26  1  0
 12 27  1  0
 14 28  1  0
 17 29  1  0
 18 30  1  0
M  CHG  2   3  -1  14   1
M  END
>  <UniqueID>  (39) 
38

>  <SMILES>  (39) 
O=C([O-])[C@H](c1c[nH]c2ccccc12)[NH+]1C(=O)C=CC1=O

>  <Energy>  (39) 
85.72835586089

>  <Genealogy>  (39) 
O=C([O-])[C@H](c1c[nH]c2ccccc12)[NH+]1C(=O)C=CC1=O (protonated)
O=C([O-])[C@H](c1c[nH]c2ccccc12)[NH+]1C(=O)C=CC1=O (3D coordinates assigned)
O=C([O-])[C@H](c1c[nH]c2ccccc12)[NH+]1C(=O)C=CC1=O (nonaromatic ring conformer: 85.72835586089 kcal/mol)

$$$$
untitled_line_39
     RDKit          3D

 42 45  0  0  0  0  0  0  0  0999 V2000
   -0.6713    1.1579   -1.6173 O   0  0  0  0  0  0  0  0  0  0  0  0
   -0.6469   -0.0540   -1.2736 C   0  0  0  0  0  0  0  0  0  0  0  0
   -0.8911   -1.0395   -2.2217 O   0  0  0  0  0  1  0  0  0  0  0  0
   -0.3565   -0.4398    0.1527 C   0  0  2  0  0  0  0  0  0  0  0  0
   -1.3967    0.1803    1.1102 C   0  0  0  0  0  0  0  0  0  0  0  0
   -2.7810   -0.3387    0.8375 C   0  0  0  0  0  0  0  0  0  0  0  0
   -3.2767   -1.5887    1.1967 C   0  0  0  0  0  0  0  0  0  0  0  0
   -4.5371   -1.7484    0.7334 N   0  0  0  0  0  0  0  0  0  0  0  0
   -4.8385   -0.6144    0.0775 C   0  0  0  0  0  0  0  0  0  0  0  0
   -6.0271   -0.3142   -0.5865 C   0  0  0  0  0  0  0  0  0  0  0  0
   -6.1266    0.9356   -1.2244 C   0  0  0  0  0  0  0  0  0  0  0  0
   -5.0478    1.8464   -1.1861 C   0  0  0  0  0  0  0  0  0  0  0  0
   -3.8596    1.5164   -0.5093 C   0  0  0  0  0  0  0  0  0  0  0  0
   -3.7903    0.2702    0.1154 C   0  0  0  0  0  0  0  0  0  0  0  0
    1.0775   -0.0264    0.5639 C   0  0  0  0  0  0  0  0  0  0  0  0
    2.1178   -0.7792   -0.1862 N   0  0  0  0  0  4  0  0  0  0  0  0
    3.2640   -1.0545    0.6510 C   0  0  0  0  0  0  0  0  0  0  0  0
    3.2219   -1.8226    1.6498 O   0  0  0  0  0  0  0  0  0  0  0  0
    4.4729   -0.3977    0.1804 C   0  0  0  0  0  0  0  0  0  0  0  0
    5.7707   -0.3916    0.6906 C   0  0  0  0  0  0  0  0  0  0  0  0
    6.7506    0.3338   -0.0110 C   0  0  0  0  0  0  0  0  0  0  0  0
    6.4147    1.0233   -1.1965 C   0  0  0  0  0  0  0  0  0  0  0  0
    5.0968    0.9916   -1.6873 C   0  0  0  0  0  0  0  0  0  0  0  0
    4.1481    0.2686   -0.9647 C   0  0  0  0  0  0  0  0  0  0  0  0
    2.7353    0.0302   -1.2145 C   0  0  0  0  0  0  0  0  0  0  0  0
    2.1274    0.4332   -2.2416 O   0  0  0  0  0  0  0  0  0  0  0  0
   -0.4318   -1.5467    0.2446 H   0  0  0  0  0  0  0  0  0  0  0  0
   -1.1377   -0.0796    2.1596 H   0  0  0  0  0  0  0  0  0  0  0  0
   -1.3798    1.2889    1.0352 H   0  0  0  0  0  0  0  0  0  0  0  0
   -2.7386   -2.3433    1.7555 H   0  0  0  0  0  0  0  0  0  0  0  0
   -5.1449   -2.5891    0.8526 H   0  0  0  0  0  0  0  0  0  0  0  0
   -6.8472   -1.0201   -0.6132 H   0  0  0  0  0  0  0  0  0  0  0  0
   -7.0355    1.2002   -1.7490 H   0  0  0  0  0  0  0  0  0  0  0  0
   -5.1355    2.8047   -1.6811 H   0  0  0  0  0  0  0  0  0  0  0  0
   -3.0319    2.2120   -0.4778 H   0  0  0  0  0  0  0  0  0  0  0  0
    1.1719   -0.2240    1.6570 H   0  0  0  0  0  0  0  0  0  0  0  0
    1.2031    1.0758    0.4473 H   0  0  0  0  0  0  0  0  0  0  0  0
    1.7680   -1.6766   -0.5962 H   0  0  0  0  0  0  0  0  0  0  0  0
    6.0177   -0.9286    1.5971 H   0  0  0  0  0  0  0  0  0  0  0  0
    7.7675    0.3608    0.3582 H   0  0  0  0  0  0  0  0  0  0  0  0
    7.1752    1.5765   -1.7319 H   0  0  0  0  0  0  0  0  0  0  0  0
    4.8290    1.5115   -2.5978 H   0  0  0  0  0  0  0  0  0  0  0  0
  1  2  2  0
  2  3  1  0
  2  4  1  0
  4  5  1  0
  5  6  1  0
  6  7  2  0
  7  8  1  0
  8  9  1  0
  9 10  2  0
 10 11  1  0
 11 12  2  0
 12 13  1  0
 13 14  2  0
  4 15  1  0
 15 16  1  0
 16 17  1  0
 17 18  2  0
 17 19  1  0
 19 20  2  0
 20 21  1  0
 21 22  2  0
 22 23  1  0
 23 24  2  0
 24 25  1  0
 25 26  2  0
 14  6  1  0
 25 16  1  0
 14  9  1  0
 24 19  1  0
  4 27  1  6
  5 28  1  0
  5 29  1  0
  7 30  1  0
  8 31  1  0
 10 32  1  0
 11 33  1  0
 12 34  1  0
 13 35  1  0
 15 36  1  0
 15 37  1  0
 16 38  1  0
 20 39  1  0
 21 40  1  0
 22 41  1  0
 23 42  1  0
M  CHG  2   3  -1  16   1
M  END
>  <UniqueID>  (40) 
39

>  <SMILES>  (40) 
O=C([O-])[C@H](Cc1c[nH]c2ccccc12)C[NH+]1C(=O)c2ccccc2C1=O

>  <Energy>  (40) 
104.59180236822816

>  <Genealogy>  (40) 
O=C([O-])[C@H](Cc1c[nH]c2ccccc12)C[NH+]1C(=O)c2ccccc2C1=O (protonated)
O=C([O-])[C@H](Cc1c[nH]c2ccccc12)C[NH+]1C(=O)c2ccccc2C1=O (3D coordinates assigned)
O=C([O-])[C@H](Cc1c[nH]c2ccccc12)C[NH+]1C(=O)c2ccccc2C1=O (nonaromatic ring conformer: 104.59180236822816 kcal/mol)

$$$$
untitled_line_40
     RDKit          3D

 44 47  0  0  0  0  0  0  0  0999 V2000
    3.6398   -1.0165    1.9438 H   0  0  0  0  0  0  0  0  0  0  0  0
    3.6564   -0.5478    0.9668 C   0  0  0  0  0  0  0  0  0  0  0  0
    2.5781   -0.6635    0.1758 C   0  0  0  0  0  0  0  0  0  0  0  0
    2.3565    0.1644   -1.3886 S   0  0  0  0  0  0  0  0  0  0  0  0
    1.0389   -1.0222   -1.6716 C   0  0  0  0  0  0  0  0  0  0  0  0
    1.0294   -1.7624   -2.9085 S   0  0  0  0  0  0  0  0  0  0  0  0
    0.3761   -1.5366   -0.4872 N   0  0  2  0  0  4  0  0  0  0  0  0
    0.0770   -2.5355   -0.6072 H   0  0  0  0  0  0  0  0  0  0  0  0
   -0.7816   -0.6786   -0.1091 C   0  0  2  0  0  0  0  0  0  0  0  0
   -0.4303    0.3716    0.0344 H   0  0  0  0  0  0  0  0  0  0  0  0
   -1.4022   -1.1536    1.1867 C   0  0  0  0  0  0  0  0  0  0  0  0
   -1.5652   -0.3494    2.1420 O   0  0  0  0  0  0  0  0  0  0  0  0
   -1.8162   -2.4732    1.3242 O   0  0  0  0  0  1  0  0  0  0  0  0
   -1.8680   -0.6675   -1.2150 C   0  0  0  0  0  0  0  0  0  0  0  0
   -1.4350   -0.3201   -2.1757 H   0  0  0  0  0  0  0  0  0  0  0  0
   -2.2544   -1.6956   -1.3832 H   0  0  0  0  0  0  0  0  0  0  0  0
   -2.9985    0.2656   -0.8795 C   0  0  0  0  0  0  0  0  0  0  0  0
   -2.9752    1.6538   -0.9749 C   0  0  0  0  0  0  0  0  0  0  0  0
   -2.1468    2.2466   -1.3404 H   0  0  0  0  0  0  0  0  0  0  0  0
   -4.1386    2.1778   -0.5268 N   0  0  0  0  0  0  0  0  0  0  0  0
   -4.3909    3.1901   -0.4795 H   0  0  0  0  0  0  0  0  0  0  0  0
   -4.8922    1.1338   -0.1407 C   0  0  0  0  0  0  0  0  0  0  0  0
   -6.1731    1.1749    0.4084 C   0  0  0  0  0  0  0  0  0  0  0  0
   -6.6865    2.1152    0.5620 H   0  0  0  0  0  0  0  0  0  0  0  0
   -6.7773   -0.0458    0.7604 C   0  0  0  0  0  0  0  0  0  0  0  0
   -7.7709   -0.0495    1.1892 H   0  0  0  0  0  0  0  0  0  0  0  0
   -6.0946   -1.2660    0.5603 C   0  0  0  0  0  0  0  0  0  0  0  0
   -6.5686   -2.1988    0.8366 H   0  0  0  0  0  0  0  0  0  0  0  0
   -4.8020   -1.2774    0.0054 C   0  0  0  0  0  0  0  0  0  0  0  0
   -4.2756   -2.2099   -0.1478 H   0  0  0  0  0  0  0  0  0  0  0  0
   -4.2294   -0.0514   -0.3367 C   0  0  0  0  0  0  0  0  0  0  0  0
    1.4113   -1.4782    0.5112 C   0  0  0  0  0  0  0  0  0  0  0  0
    1.3324   -2.1343    1.5864 O   0  0  0  0  0  0  0  0  0  0  0  0
    4.8490    0.2561    0.6292 C   0  0  0  0  0  0  0  0  0  0  0  0
    5.4016    1.1013    1.6037 C   0  0  0  0  0  0  0  0  0  0  0  0
    4.9370    1.1904    2.5783 H   0  0  0  0  0  0  0  0  0  0  0  0
    6.5497    1.8484    1.3224 C   0  0  0  0  0  0  0  0  0  0  0  0
    6.9603    2.5066    2.0772 H   0  0  0  0  0  0  0  0  0  0  0  0
    7.1666    1.7423    0.0720 C   0  0  0  0  0  0  0  0  0  0  0  0
    8.7364    2.7609   -0.3094 Br  0  0  0  0  0  0  0  0  0  0  0  0
    6.6399    0.8797   -0.8942 C   0  0  0  0  0  0  0  0  0  0  0  0
    7.1246    0.7807   -1.8569 H   0  0  0  0  0  0  0  0  0  0  0  0
    5.4917    0.1318   -0.6157 C   0  0  0  0  0  0  0  0  0  0  0  0
    5.1206   -0.5582   -1.3627 H   0  0  0  0  0  0  0  0  0  0  0  0
  1  2  1  0
  2  3  2  0
  3  4  1  0
  4  5  1  0
  5  6  2  0
  5  7  1  0
  7  8  1  6
  7  9  1  0
  9 10  1  1
  9 11  1  0
 11 12  2  0
 11 13  1  0
  9 14  1  0
 14 15  1  0
 14 16  1  0
 14 17  1  0
 17 18  2  0
 18 19  1  0
 18 20  1  0
 20 21  1  0
 20 22  1  0
 22 23  2  0
 23 24  1  0
 23 25  1  0
 25 26  1  0
 25 27  2  0
 27 28  1  0
 27 29  1  0
 29 30  1  0
 29 31  2  0
  7 32  1  0
 32 33  2  0
  2 34  1  0
 34 35  2  0
 35 36  1  0
 35 37  1  0
 37 38  1  0
 37 39  2  0
 39 40  1  0
 39 41  1  0
 41 42  1  0
 41 43  2  0
 43 44  1  0
 32  3  1  0
 43 34  1  0
 31 17  1  0
 31 22  1  0
M  CHG  2   7   1  13  -1
M  END
>  <UniqueID>  (41) 
40

>  <SMILES>  (41) 
O=C([O-])[C@H](Cc1c[nH]c2ccccc12)[N@@H+]1C(=O)/C(=C/c2ccc(Br)cc2)SC1=S

>  <Energy>  (41) 
105.2706092218831

>  <Genealogy>  (41) 
O=C([O-])[C@H](Cc1c[nH]c2ccccc12)[NH+]1C(=O)/C(=C/c2ccc(Br)cc2)SC1=S (protonated)
O=C([O-])[C@H](Cc1c[nH]c2ccccc12)[N@@H+]1C(=O)/C(=C/c2ccc(Br)cc2)SC1=S (chirality)
O=C([O-])[C@H](Cc1c[nH]c2ccccc12)[N@@H+]1C(=O)/C(=C/c2ccc(Br)cc2)SC1=S (cis-trans isomerization)
O=C([O-])[C@H](Cc1c[nH]c2ccccc12)[N@@H+]1C(=O)/C(=C/c2ccc(Br)cc2)SC1=S (3D coordinates assigned)
O=C([O-])[C@H](Cc1c[nH]c2ccccc12)[N@@H+]1C(=O)/C(=C/c2ccc(Br)cc2)SC1=S (nonaromatic ring conformer: 105.2706092218831 kcal/mol)

$$$$
untitled_line_41
     RDKit          3D

 27 28  0  0  0  0  0  0  0  0999 V2000
    0.9591    1.6365    0.9054 N   0  0  0  0  0  4  0  0  0  0  0  0
    1.9308    0.6814    0.3548 C   0  0  2  0  0  0  0  0  0  0  0  0
    1.6714    0.3932   -1.1405 C   0  0  0  0  0  0  0  0  0  0  0  0
    0.3342   -0.2445   -1.4046 C   0  0  0  0  0  0  0  0  0  0  0  0
    0.0404   -1.6042   -1.3498 C   0  0  0  0  0  0  0  0  0  0  0  0
   -1.2700   -1.8158   -1.6083 N   0  0  0  0  0  0  0  0  0  0  0  0
   -1.8070   -0.6026   -1.8237 C   0  0  0  0  0  0  0  0  0  0  0  0
   -3.1368   -0.3092   -2.1226 C   0  0  0  0  0  0  0  0  0  0  0  0
   -3.4872    1.0409   -2.3060 C   0  0  0  0  0  0  0  0  0  0  0  0
   -2.5119    2.0557   -2.1879 C   0  0  0  0  0  0  0  0  0  0  0  0
   -1.1773    1.7303   -1.8852 C   0  0  0  0  0  0  0  0  0  0  0  0
   -0.8596    0.3829   -1.7079 C   0  0  0  0  0  0  0  0  0  0  0  0
    1.9721   -0.5906    1.1637 C   0  0  0  0  0  0  0  0  0  0  0  0
    0.9295   -1.0455    1.7055 O   0  0  0  0  0  0  0  0  0  0  0  0
    3.1616   -1.3000    1.2706 O   0  0  0  0  0  1  0  0  0  0  0  0
    1.2140    1.8653    1.8939 H   0  0  0  0  0  0  0  0  0  0  0  0
   -0.0097    1.2438    0.8887 H   0  0  0  0  0  0  0  0  0  0  0  0
    0.9807    2.5228    0.3507 H   0  0  0  0  0  0  0  0  0  0  0  0
    2.9407    1.1453    0.4239 H   0  0  0  0  0  0  0  0  0  0  0  0
    1.7487    1.3402   -1.7162 H   0  0  0  0  0  0  0  0  0  0  0  0
    2.4699   -0.2775   -1.5264 H   0  0  0  0  0  0  0  0  0  0  0  0
    0.7464   -2.3933   -1.1259 H   0  0  0  0  0  0  0  0  0  0  0  0
   -1.7619   -2.7367   -1.6298 H   0  0  0  0  0  0  0  0  0  0  0  0
   -3.8773   -1.0937   -2.2103 H   0  0  0  0  0  0  0  0  0  0  0  0
   -4.5110    1.3033   -2.5390 H   0  0  0  0  0  0  0  0  0  0  0  0
   -2.7931    3.0908   -2.3313 H   0  0  0  0  0  0  0  0  0  0  0  0
   -0.4271    2.5043   -1.7947 H   0  0  0  0  0  0  0  0  0  0  0  0
  1  2  1  0
  2  3  1  0
  3  4  1  0
  4  5  2  0
  5  6  1  0
  6  7  1  0
  7  8  2  0
  8  9  1  0
  9 10  2  0
 10 11  1  0
 11 12  2  0
  2 13  1  0
 13 14  2  0
 13 15  1  0
 12  4  1  0
 12  7  1  0
  1 16  1  0
  1 17  1  0
  1 18  1  0
  2 19  1  6
  3 20  1  0
  3 21  1  0
  5 22  1  0
  6 23  1  0
  8 24  1  0
  9 25  1  0
 10 26  1  0
 11 27  1  0
M  CHG  2   1   1  15  -1
M  END
>  <UniqueID>  (42) 
41

>  <SMILES>  (42) 
[NH3+][C@H](Cc1c[nH]c2ccccc12)C(=O)[O-]

>  <Energy>  (42) 
57.81910192955597

>  <Genealogy>  (42) 
[NH3+][C@H](Cc1c[nH]c2ccccc12)C(=O)[O-] (protonated)
[NH3+][C@H](Cc1c[nH]c2ccccc12)C(=O)[O-] (3D coordinates assigned)
[NH3+][C@H](Cc1c[nH]c2ccccc12)C(=O)[O-] (optimized conformer: 57.81910192955597 kcal/mol)

$$$$
untitled_line_42
     RDKit          3D

 37 38  0  0  0  0  0  0  0  0999 V2000
    2.0443   -2.4280    2.6520 C   0  0  0  0  0  0  0  0  0  0  0  0
    0.7477   -2.1560    1.8745 C   0  0  2  0  0  0  0  0  0  0  0  0
    0.2002   -3.4309    1.2057 C   0  0  0  0  0  0  0  0  0  0  0  0
    1.3246   -4.1080   -0.0634 S   0  0  0  0  0  0  0  0  0  0  0  0
    0.9243   -1.0394    0.8651 C   0  0  0  0  0  0  0  0  0  0  0  0
    2.0102   -0.9379    0.2336 O   0  0  0  0  0  0  0  0  0  0  0  0
   -0.1342   -0.1253    0.5467 N   0  0  0  0  0  2  0  0  0  0  0  0
   -1.4359   -0.0452    1.2097 C   0  0  2  0  0  0  0  0  0  0  0  0
   -2.4181    0.7677    0.3488 C   0  0  0  0  0  0  0  0  0  0  0  0
   -1.9404    2.1688    0.0789 C   0  0  0  0  0  0  0  0  0  0  0  0
   -2.2049    3.2968    0.8504 C   0  0  0  0  0  0  0  0  0  0  0  0
   -1.5683    4.3766    0.3426 N   0  0  0  0  0  0  0  0  0  0  0  0
   -0.8996    3.9395   -0.7386 C   0  0  0  0  0  0  0  0  0  0  0  0
   -0.0855    4.6880   -1.5877 C   0  0  0  0  0  0  0  0  0  0  0  0
    0.5326    4.0221   -2.6619 C   0  0  0  0  0  0  0  0  0  0  0  0
    0.3263    2.6389   -2.8606 C   0  0  0  0  0  0  0  0  0  0  0  0
   -0.5002    1.9087   -1.9873 C   0  0  0  0  0  0  0  0  0  0  0  0
   -1.0998    2.5962   -0.9313 C   0  0  0  0  0  0  0  0  0  0  0  0
   -1.2999    0.5494    2.5854 C   0  0  0  0  0  0  0  0  0  0  0  0
   -0.4145    1.4124    2.8282 O   0  0  0  0  0  0  0  0  0  0  0  0
   -2.1883    0.1801    3.5871 O   0  0  0  0  0  1  0  0  0  0  0  0
    1.8737   -3.2177    3.4145 H   0  0  0  0  0  0  0  0  0  0  0  0
    2.8614   -2.7576    1.9760 H   0  0  0  0  0  0  0  0  0  0  0  0
    2.3703   -1.5047    3.1772 H   0  0  0  0  0  0  0  0  0  0  0  0
    0.0025   -1.8408    2.6333 H   0  0  0  0  0  0  0  0  0  0  0  0
    0.0260   -4.2104    1.9781 H   0  0  0  0  0  0  0  0  0  0  0  0
   -0.7772   -3.2100    0.7265 H   0  0  0  0  0  0  0  0  0  0  0  0
    0.4537   -5.1738   -0.3591 H   0  0  0  0  0  0  0  0  0  0  0  0
   -1.8562   -1.0692    1.3059 H   0  0  0  0  0  0  0  0  0  0  0  0
   -3.4072    0.8099    0.8553 H   0  0  0  0  0  0  0  0  0  0  0  0
   -2.5744    0.2437   -0.6186 H   0  0  0  0  0  0  0  0  0  0  0  0
   -2.8200    3.3219    1.7405 H   0  0  0  0  0  0  0  0  0  0  0  0
   -1.5869    5.3491    0.7226 H   0  0  0  0  0  0  0  0  0  0  0  0
    0.0685    5.7470   -1.4259 H   0  0  0  0  0  0  0  0  0  0  0  0
    1.1711    4.5734   -3.3398 H   0  0  0  0  0  0  0  0  0  0  0  0
    0.8075    2.1371   -3.6899 H   0  0  0  0  0  0  0  0  0  0  0  0
   -0.6612    0.8488   -2.1347 H   0  0  0  0  0  0  0  0  0  0  0  0
  1  2  1  0
  2  3  1  0
  3  4  1  0
  2  5  1  0
  5  6  2  0
  5  7  1  0
  7  8  1  0
  8  9  1  0
  9 10  1  0
 10 11  2  0
 11 12  1  0
 12 13  1  0
 13 14  2  0
 14 15  1  0
 15 16  2  0
 16 17  1  0
 17 18  2  0
  8 19  1  0
 19 20  2  0
 19 21  1  0
 18 10  1  0
 18 13  1  0
  1 22  1  0
  1 23  1  0
  1 24  1  0
  2 25  1  1
  3 26  1  0
  3 27  1  0
  4 28  1  0
  8 29  1  1
  9 30  1  0
  9 31  1  0
 11 32  1  0
 12 33  1  0
 14 34  1  0
 15 35  1  0
 16 36  1  0
 17 37  1  0
M  CHG  2   7  -1  21  -1
M  END
>  <UniqueID>  (43) 
42

>  <SMILES>  (43) 
C[C@H](CS)C(=O)[N-][C@H](Cc1c[nH]c2ccccc12)C(=O)[O-]

>  <Energy>  (43) 
62.37518999506841

>  <Genealogy>  (43) 
C[C@H](CS)C(=O)[N-][C@H](Cc1c[nH]c2ccccc12)C(=O)[O-] (protonated)
C[C@H](CS)C(=O)[N-][C@H](Cc1c[nH]c2ccccc12)C(=O)[O-] (3D coordinates assigned)
C[C@H](CS)C(=O)[N-][C@H](Cc1c[nH]c2ccccc12)C(=O)[O-] (optimized conformer: 62.37518999506841 kcal/mol)

$$$$
untitled_line_43
     RDKit          3D

 55 60  0  0  0  0  0  0  0  0999 V2000
   -0.9087    3.3754   -1.4334 H   0  0  0  0  0  0  0  0  0  0  0  0
   -1.0918    2.3576   -1.1132 C   0  0  0  0  0  0  0  0  0  0  0  0
   -1.5840    2.1385    0.1134 C   0  0  0  0  0  0  0  0  0  0  0  0
   -1.9183    3.4913    1.2374 S   0  0  0  0  0  0  0  0  0  0  0  0
   -2.3376    2.2766    2.4933 C   0  0  0  0  0  0  0  0  0  0  0  0
   -2.4594    2.7442    4.0592 S   0  0  0  0  0  0  0  0  0  0  0  0
   -2.3265    0.9030    2.0612 N   0  0  0  0  0  0  0  0  0  0  0  0
   -2.6075   -0.3110    2.8573 C   0  0  2  0  0  0  0  0  0  0  0  0
   -3.0072   -1.0853    2.1657 H   0  0  0  0  0  0  0  0  0  0  0  0
   -3.7208   -0.1074    3.8556 C   0  0  0  0  0  0  0  0  0  0  0  0
   -4.7667    0.5028    3.5084 O   0  0  0  0  0  0  0  0  0  0  0  0
   -3.6585   -0.6715    5.1238 O   0  0  0  0  0  1  0  0  0  0  0  0
   -1.3139   -0.9181    3.4515 C   0  0  0  0  0  0  0  0  0  0  0  0
   -1.5632   -1.8292    4.0375 H   0  0  0  0  0  0  0  0  0  0  0  0
   -0.6640   -1.2587    2.6171 H   0  0  0  0  0  0  0  0  0  0  0  0
   -0.5274    0.0255    4.3184 C   0  0  0  0  0  0  0  0  0  0  0  0
   -0.6665    0.2063    5.6923 C   0  0  0  0  0  0  0  0  0  0  0  0
   -1.3581   -0.3220    6.3341 H   0  0  0  0  0  0  0  0  0  0  0  0
    0.2008    1.1438    6.1366 N   0  0  0  0  0  0  0  0  0  0  0  0
    0.3106    1.4772    7.1199 H   0  0  0  0  0  0  0  0  0  0  0  0
    0.8915    1.5524    5.0587 C   0  0  0  0  0  0  0  0  0  0  0  0
    1.9002    2.5136    5.0187 C   0  0  0  0  0  0  0  0  0  0  0  0
    2.2143    3.0333    5.9146 H   0  0  0  0  0  0  0  0  0  0  0  0
    2.4986    2.7872    3.7758 C   0  0  0  0  0  0  0  0  0  0  0  0
    3.2850    3.5277    3.7094 H   0  0  0  0  0  0  0  0  0  0  0  0
    2.0836    2.0986    2.6151 C   0  0  0  0  0  0  0  0  0  0  0  0
    2.5577    2.3141    1.6673 H   0  0  0  0  0  0  0  0  0  0  0  0
    1.0630    1.1330    2.6851 C   0  0  0  0  0  0  0  0  0  0  0  0
    0.7476    0.5981    1.8002 H   0  0  0  0  0  0  0  0  0  0  0  0
    0.4814    0.8889    3.9302 C   0  0  0  0  0  0  0  0  0  0  0  0
   -1.8889    0.8351    0.7077 C   0  0  0  0  0  0  0  0  0  0  0  0
   -1.7676   -0.2604    0.0952 O   0  0  0  0  0  0  0  0  0  0  0  0
   -0.7701    1.2678   -2.0664 C   0  0  0  0  0  0  0  0  0  0  0  0
   -1.7433    0.8297   -2.9960 C   0  0  0  0  0  0  0  0  0  0  0  0
   -3.0210    1.4339   -3.0544 C   0  0  0  0  0  0  0  0  0  0  0  0
   -3.2930    2.2503   -2.3983 H   0  0  0  0  0  0  0  0  0  0  0  0
   -3.9784    0.9946   -3.9666 C   0  0  0  0  0  0  0  0  0  0  0  0
   -4.9516    1.4675   -3.9989 H   0  0  0  0  0  0  0  0  0  0  0  0
   -3.6865   -0.0500   -4.8359 C   0  0  0  0  0  0  0  0  0  0  0  0
   -4.4337   -0.3876   -5.5428 H   0  0  0  0  0  0  0  0  0  0  0  0
   -2.4353   -0.6635   -4.7996 C   0  0  0  0  0  0  0  0  0  0  0  0
   -2.2593   -1.4711   -5.4961 H   0  0  0  0  0  0  0  0  0  0  0  0
   -1.4454   -0.2390   -3.8846 C   0  0  0  0  0  0  0  0  0  0  0  0
   -0.1766   -0.8622   -3.8413 C   0  0  0  0  0  0  0  0  0  0  0  0
    0.1916   -2.2033   -4.9459 Cl  0  0  0  0  0  0  0  0  0  0  0  0
    0.7997   -0.4176   -2.9200 C   0  0  0  0  0  0  0  0  0  0  0  0
    2.0744   -1.0251   -2.8577 C   0  0  0  0  0  0  0  0  0  0  0  0
    2.3468   -1.8466   -3.5051 H   0  0  0  0  0  0  0  0  0  0  0  0
    3.0345   -0.5824   -1.9488 C   0  0  0  0  0  0  0  0  0  0  0  0
    4.0056   -1.0594   -1.9130 H   0  0  0  0  0  0  0  0  0  0  0  0
    2.7501    0.4733   -1.0904 C   0  0  0  0  0  0  0  0  0  0  0  0
    3.5002    0.8162   -0.3894 H   0  0  0  0  0  0  0  0  0  0  0  0
    1.5024    1.0915   -1.1327 C   0  0  0  0  0  0  0  0  0  0  0  0
    1.3280    1.9143   -0.4531 H   0  0  0  0  0  0  0  0  0  0  0  0
    0.5060    0.6558   -2.0364 C   0  0  0  0  0  0  0  0  0  0  0  0
  1  2  1  0
  2  3  2  0
  3  4  1  0
  4  5  1  0
  5  6  2  0
  5  7  1  0
  7  8  1  0
  8  9  1  6
  8 10  1  0
 10 11  2  0
 10 12  1  0
  8 13  1  0
 13 14  1  0
 13 15  1  0
 13 16  1  0
 16 17  2  0
 17 18  1  0
 17 19  1  0
 19 20  1  0
 19 21  1  0
 21 22  2  0
 22 23  1  0
 22 24  1  0
 24 25  1  0
 24 26  2  0
 26 27  1  0
 26 28  1  0
 28 29  1  0
 28 30  2  0
  7 31  1  0
 31 32  2  0
  2 33  1  0
 33 34  1  0
 34 35  2  0
 35 36  1  0
 35 37  1  0
 37 38  1  0
 37 39  2  0
 39 40  1  0
 39 41  1  0
 41 42  1  0
 41 43  2  0
 43 44  1  0
 44 45  1  0
 44 46  2  0
 46 47  1  0
 47 48  1  0
 47 49  2  0
 49 50  1  0
 49 51  1  0
 51 52  1  0
 51 53  2  0
 53 54  1  0
 53 55  1  0
 31  3  1  0
 55 33  2  0
 30 16  1  0
 43 34  1  0
 55 46  1  0
 30 21  1  0
M  CHG  1  12  -1
M  END
>  <UniqueID>  (44) 
43

>  <SMILES>  (44) 
O=C([O-])[C@H](Cc1c[nH]c2ccccc12)N1C(=O)/C(=C/c2c3ccccc3c(Cl)c3ccccc23)SC1=S

>  <Energy>  (44) 
138.15435128632075

>  <Genealogy>  (44) 
O=C([O-])[C@H](Cc1c[nH]c2ccccc12)N1C(=O)/C(=C/c2c3ccccc3c(Cl)c3ccccc23)SC1=S (protonated)
O=C([O-])[C@H](Cc1c[nH]c2ccccc12)N1C(=O)/C(=C/c2c3ccccc3c(Cl)c3ccccc23)SC1=S (cis-trans isomerization)
O=C([O-])[C@H](Cc1c[nH]c2ccccc12)N1C(=O)/C(=C/c2c3ccccc3c(Cl)c3ccccc23)SC1=S (3D coordinates assigned)
O=C([O-])[C@H](Cc1c[nH]c2ccccc12)N1C(=O)/C(=C/c2c3ccccc3c(Cl)c3ccccc23)SC1=S (nonaromatic ring conformer: 138.15435128632075 kcal/mol)

$$$$
untitled_line_44
     RDKit          3D

 44 47  0  0  0  0  0  0  0  0999 V2000
   -1.0338    2.9876   -1.7258 C   0  0  0  0  0  0  0  0  0  0  0  0
   -0.3705    2.0607   -0.8757 O   0  0  0  0  0  0  0  0  0  0  0  0
   -0.4915    0.6765   -1.0327 C   0  0  0  0  0  0  0  0  0  0  0  0
   -1.2015    0.1951   -1.9579 O   0  0  0  0  0  0  0  0  0  0  0  0
    0.2103   -0.2487   -0.0675 C   0  0  2  0  0  0  0  0  0  0  0  0
   -0.4956   -0.1651    1.3073 C   0  0  0  0  0  0  0  0  0  0  0  0
   -1.9287   -0.6129    1.2269 C   0  0  0  0  0  0  0  0  0  0  0  0
   -2.3779   -1.9286    1.1659 C   0  0  0  0  0  0  0  0  0  0  0  0
   -3.7215   -1.9625    1.0147 N   0  0  0  0  0  0  0  0  0  0  0  0
   -4.1229   -0.6803    0.9687 C   0  0  0  0  0  0  0  0  0  0  0  0
   -5.4239   -0.2088    0.7982 C   0  0  0  0  0  0  0  0  0  0  0  0
   -5.6184    1.1838    0.7554 C   0  0  0  0  0  0  0  0  0  0  0  0
   -4.5207    2.0639    0.8804 C   0  0  0  0  0  0  0  0  0  0  0  0
   -3.2187    1.5598    1.0510 C   0  0  0  0  0  0  0  0  0  0  0  0
   -3.0568    0.1742    1.0916 C   0  0  0  0  0  0  0  0  0  0  0  0
    1.6415    0.1290    0.0531 N   0  0  0  0  0  0  0  0  0  0  0  0
    2.4167   -0.7931    0.9224 C   0  0  0  0  0  0  0  0  0  0  0  0
    3.7115   -0.9839    0.2390 C   0  0  0  0  0  0  0  0  0  0  0  0
    4.8472   -1.6491    0.7056 C   0  0  0  0  0  0  0  0  0  0  0  0
    5.9651   -1.7372   -0.1402 C   0  0  0  0  0  0  0  0  0  0  0  0
    5.9225   -1.1716   -1.4294 C   0  0  0  0  0  0  0  0  0  0  0  0
    4.7619   -0.5173   -1.8743 C   0  0  0  0  0  0  0  0  0  0  0  0
    3.6702   -0.4376   -1.0071 C   0  0  0  0  0  0  0  0  0  0  0  0
    2.3454    0.1644   -1.2557 C   0  0  0  0  0  0  0  0  0  0  0  0
   -0.7893    4.0195   -1.4006 H   0  0  0  0  0  0  0  0  0  0  0  0
   -2.1331    2.8415   -1.6627 H   0  0  0  0  0  0  0  0  0  0  0  0
   -0.6958    2.8502   -2.7747 H   0  0  0  0  0  0  0  0  0  0  0  0
    0.1322   -1.2942   -0.4481 H   0  0  0  0  0  0  0  0  0  0  0  0
    0.0137   -0.8178    2.0461 H   0  0  0  0  0  0  0  0  0  0  0  0
   -0.4400    0.8723    1.7019 H   0  0  0  0  0  0  0  0  0  0  0  0
   -1.7529   -2.8109    1.2134 H   0  0  0  0  0  0  0  0  0  0  0  0
   -4.3198   -2.8145    0.9331 H   0  0  0  0  0  0  0  0  0  0  0  0
   -6.2580   -0.8911    0.6977 H   0  0  0  0  0  0  0  0  0  0  0  0
   -6.6154    1.5832    0.6231 H   0  0  0  0  0  0  0  0  0  0  0  0
   -4.6818    3.1333    0.8434 H   0  0  0  0  0  0  0  0  0  0  0  0
   -2.3756    2.2309    1.1456 H   0  0  0  0  0  0  0  0  0  0  0  0
    2.5733   -0.3286    1.9189 H   0  0  0  0  0  0  0  0  0  0  0  0
    1.9276   -1.7869    1.0329 H   0  0  0  0  0  0  0  0  0  0  0  0
    4.8656   -2.0887    1.6945 H   0  0  0  0  0  0  0  0  0  0  0  0
    6.8590   -2.2451    0.1976 H   0  0  0  0  0  0  0  0  0  0  0  0
    6.7838   -1.2455   -2.0806 H   0  0  0  0  0  0  0  0  0  0  0  0
    4.7150   -0.0873   -2.8664 H   0  0  0  0  0  0  0  0  0  0  0  0
    2.4586    1.2161   -1.5939 H   0  0  0  0  0  0  0  0  0  0  0  0
    1.8231   -0.4349   -2.0352 H   0  0  0  0  0  0  0  0  0  0  0  0
  1  2  1  0
  2  3  1  0
  3  4  2  0
  3  5  1  0
  5  6  1  0
  6  7  1  0
  7  8  2  0
  8  9  1  0
  9 10  1  0
 10 11  2  0
 11 12  1  0
 12 13  2  0
 13 14  1  0
 14 15  2  0
  5 16  1  0
 16 17  1  0
 17 18  1  0
 18 19  2  0
 19 20  1  0
 20 21  2  0
 21 22  1  0
 22 23  2  0
 23 24  1  0
 15  7  1  0
 24 16  1  0
 15 10  1  0
 23 18  1  0
  1 25  1  0
  1 26  1  0
  1 27  1  0
  5 28  1  6
  6 29  1  0
  6 30  1  0
  8 31  1  0
  9 32  1  0
 11 33  1  0
 12 34  1  0
 13 35  1  0
 14 36  1  0
 17 37  1  0
 17 38  1  0
 19 39  1  0
 20 40  1  0
 21 41  1  0
 22 42  1  0
 24 43  1  0
 24 44  1  0
M  END
>  <UniqueID>  (45) 
44

>  <SMILES>  (45) 
COC(=O)[C@H](Cc1c[nH]c2ccccc12)N1Cc2ccccc2C1

>  <Energy>  (45) 
89.66146355803212

>  <Genealogy>  (45) 
COC(=O)[C@H](Cc1c[nH]c2ccccc12)N1Cc2ccccc2C1 (3D coordinates assigned)
COC(=O)[C@H](Cc1c[nH]c2ccccc12)N1Cc2ccccc2C1 (nonaromatic ring conformer: 89.66146355803212 kcal/mol)

$$$$
untitled_line_45
     RDKit          3D

 34 35  0  0  0  0  0  0  0  0999 V2000
   -0.0596    4.6443   -0.2180 C   0  0  0  0  0  0  0  0  0  0  0  0
    0.7034    3.3403    0.0351 C   0  0  0  0  0  0  0  0  0  0  0  0
    2.2114    3.5471   -0.1365 C   0  0  0  0  0  0  0  0  0  0  0  0
    0.2124    2.2506   -0.8939 C   0  0  0  0  0  0  0  0  0  0  0  0
    0.3160    2.3984   -2.1041 O   0  0  0  0  0  0  0  0  0  0  0  0
   -0.3975    0.9762   -0.3515 C   0  0  1  0  0  0  0  0  0  0  0  0
   -1.7087    0.8179   -0.8355 O   0  0  0  0  0  0  0  0  0  0  0  0
    0.4807   -0.2382   -0.7044 C   0  0  0  0  0  0  0  0  0  0  0  0
   -0.0569   -1.4919   -0.0798 C   0  0  0  0  0  0  0  0  0  0  0  0
   -0.8975   -2.4244   -0.6802 C   0  0  0  0  0  0  0  0  0  0  0  0
   -1.2372   -3.3907    0.2034 N   0  0  0  0  0  0  0  0  0  0  0  0
   -0.6284   -3.0693    1.3583 C   0  0  0  0  0  0  0  0  0  0  0  0
   -0.6949   -3.7573    2.5692 C   0  0  0  0  0  0  0  0  0  0  0  0
    0.0103   -3.2279    3.6657 C   0  0  0  0  0  0  0  0  0  0  0  0
    0.7545   -2.0347    3.5299 C   0  0  0  0  0  0  0  0  0  0  0  0
    0.8019   -1.3606    2.2960 C   0  0  0  0  0  0  0  0  0  0  0  0
    0.0971   -1.9130    1.2262 C   0  0  0  0  0  0  0  0  0  0  0  0
   -1.1495    4.4803   -0.0770 H   0  0  0  0  0  0  0  0  0  0  0  0
    0.2698    5.4250    0.5004 H   0  0  0  0  0  0  0  0  0  0  0  0
    0.1177    5.0125   -1.2516 H   0  0  0  0  0  0  0  0  0  0  0  0
    0.5242    3.0461    1.0922 H   0  0  0  0  0  0  0  0  0  0  0  0
    2.7504    2.5964    0.0648 H   0  0  0  0  0  0  0  0  0  0  0  0
    2.5764    4.3117    0.5821 H   0  0  0  0  0  0  0  0  0  0  0  0
    2.4500    3.8839   -1.1684 H   0  0  0  0  0  0  0  0  0  0  0  0
   -0.4577    1.0427    0.7562 H   0  0  0  0  0  0  0  0  0  0  0  0
   -1.6564    0.6784   -1.8175 H   0  0  0  0  0  0  0  0  0  0  0  0
    1.5165   -0.0688   -0.3375 H   0  0  0  0  0  0  0  0  0  0  0  0
    0.5335   -0.3682   -1.8075 H   0  0  0  0  0  0  0  0  0  0  0  0
   -1.2496   -2.3902   -1.7030 H   0  0  0  0  0  0  0  0  0  0  0  0
   -1.8589   -4.2106    0.0247 H   0  0  0  0  0  0  0  0  0  0  0  0
   -1.2724   -4.6676    2.6651 H   0  0  0  0  0  0  0  0  0  0  0  0
   -0.0201   -3.7369    4.6203 H   0  0  0  0  0  0  0  0  0  0  0  0
    1.2903   -1.6352    4.3811 H   0  0  0  0  0  0  0  0  0  0  0  0
    1.3665   -0.4438    2.1857 H   0  0  0  0  0  0  0  0  0  0  0  0
  1  2  1  0
  2  3  1  0
  2  4  1  0
  4  5  2  0
  4  6  1  0
  6  7  1  0
  6  8  1  0
  8  9  1  0
  9 10  2  0
 10 11  1  0
 11 12  1  0
 12 13  2  0
 13 14  1  0
 14 15  2  0
 15 16  1  0
 16 17  2  0
 17  9  1  0
 17 12  1  0
  1 18  1  0
  1 19  1  0
  1 20  1  0
  2 21  1  0
  3 22  1  0
  3 23  1  0
  3 24  1  0
  6 25  1  1
  7 26  1  0
  8 27  1  0
  8 28  1  0
 10 29  1  0
 11 30  1  0
 13 31  1  0
 14 32  1  0
 15 33  1  0
 16 34  1  0
M  END
>  <UniqueID>  (46) 
45

>  <SMILES>  (46) 
CC(C)C(=O)[C@@H](O)Cc1c[nH]c2ccccc12

>  <Energy>  (46) 
57.58501181208173

>  <Genealogy>  (46) 
CC(C)C(=O)[C@@H](O)Cc1c[nH]c2ccccc12 (chirality)
CC(C)C(=O)[C@@H](O)Cc1c[nH]c2ccccc12 (3D coordinates assigned)
CC(C)C(=O)[C@@H](O)Cc1c[nH]c2ccccc12 (optimized conformer: 57.58501181208173 kcal/mol)

$$$$
untitled_line_46
     RDKit          3D

 44 48  0  0  0  0  0  0  0  0999 V2000
   -3.6150    1.2982    1.4000 O   0  0  0  0  0  0  0  0  0  0  0  0
   -2.8078    0.5625    2.0270 C   0  0  0  0  0  0  0  0  0  0  0  0
   -3.1634    0.0615    3.2737 O   0  0  0  0  0  1  0  0  0  0  0  0
   -1.4672    0.2122    1.4181 C   0  0  2  0  0  0  0  0  0  0  0  0
   -1.4423   -1.3071    1.1055 C   0  0  0  0  0  0  0  0  0  0  0  0
   -2.5735   -1.7178    0.2036 C   0  0  0  0  0  0  0  0  0  0  0  0
   -3.7625   -2.3312    0.5872 C   0  0  0  0  0  0  0  0  0  0  0  0
   -4.5751   -2.4946   -0.4818 N   0  0  0  0  0  0  0  0  0  0  0  0
   -3.9129   -1.9823   -1.5339 C   0  0  0  0  0  0  0  0  0  0  0  0
   -4.3529   -1.9075   -2.8548 C   0  0  0  0  0  0  0  0  0  0  0  0
   -3.4972   -1.3126   -3.8001 C   0  0  0  0  0  0  0  0  0  0  0  0
   -2.2365   -0.8097   -3.4081 C   0  0  0  0  0  0  0  0  0  0  0  0
   -1.8194   -0.8976   -2.0675 C   0  0  0  0  0  0  0  0  0  0  0  0
   -2.6885   -1.4952   -1.1544 C   0  0  0  0  0  0  0  0  0  0  0  0
   -0.3583    0.6159    2.3294 N   0  0  0  0  0  4  0  0  0  0  0  0
    0.9387    0.4248    1.7322 C   0  0  0  0  0  0  0  0  0  0  0  0
    1.4602   -0.6772    1.6452 O   0  0  0  0  0  0  0  0  0  0  0  0
    1.6686    1.6755    1.3492 C   0  0  2  0  0  0  0  0  0  0  0  0
    2.9497    1.8913    2.1756 C   0  0  1  0  0  0  0  0  0  0  0  0
    3.6864    3.1284    1.6494 C   0  0  0  0  0  0  0  0  0  0  0  0
    2.8016    4.2397    2.2087 C   0  0  0  0  0  0  0  0  0  0  0  0
    1.7385    3.4112    2.9388 C   0  0  2  0  0  0  0  0  0  0  0  0
    2.4678    2.3185    3.4163 O   0  0  0  0  0  0  0  0  0  0  0  0
    0.7890    2.7831    1.9028 C   0  0  2  0  0  0  0  0  0  0  0  0
   -0.3479    2.0425    2.5353 C   0  0  0  0  0  0  0  0  0  0  0  0
   -1.1848    2.6078    3.2245 O   0  0  0  0  0  0  0  0  0  0  0  0
   -1.3659    0.7611    0.4514 H   0  0  0  0  0  0  0  0  0  0  0  0
   -0.5054   -1.5833    0.5835 H   0  0  0  0  0  0  0  0  0  0  0  0
   -1.4865   -1.8907    2.0509 H   0  0  0  0  0  0  0  0  0  0  0  0
   -4.0225   -2.6290    1.5946 H   0  0  0  0  0  0  0  0  0  0  0  0
   -5.5282   -2.9212   -0.4829 H   0  0  0  0  0  0  0  0  0  0  0  0
   -5.3222   -2.2920   -3.1448 H   0  0  0  0  0  0  0  0  0  0  0  0
   -3.8078   -1.2383   -4.8341 H   0  0  0  0  0  0  0  0  0  0  0  0
   -1.5873   -0.3528   -4.1437 H   0  0  0  0  0  0  0  0  0  0  0  0
   -0.8554   -0.5134   -1.7598 H   0  0  0  0  0  0  0  0  0  0  0  0
   -0.4021    0.1222    3.2522 H   0  0  0  0  0  0  0  0  0  0  0  0
    1.8231    1.7388    0.2496 H   0  0  0  0  0  0  0  0  0  0  0  0
    3.5992    0.9930    2.2538 H   0  0  0  0  0  0  0  0  0  0  0  0
    4.7082    3.1833    2.0844 H   0  0  0  0  0  0  0  0  0  0  0  0
    3.7424    3.1528    0.5390 H   0  0  0  0  0  0  0  0  0  0  0  0
    3.3676    4.8656    2.9327 H   0  0  0  0  0  0  0  0  0  0  0  0
    2.3704    4.8788    1.4073 H   0  0  0  0  0  0  0  0  0  0  0  0
    1.2238    3.9710    3.7492 H   0  0  0  0  0  0  0  0  0  0  0  0
    0.4318    3.4945    1.1261 H   0  0  0  0  0  0  0  0  0  0  0  0
  1  2  2  0
  2  3  1  0
  2  4  1  0
  4  5  1  0
  5  6  1  0
  6  7  2  0
  7  8  1  0
  8  9  1  0
  9 10  2  0
 10 11  1  0
 11 12  2  0
 12 13  1  0
 13 14  2  0
  4 15  1  0
 15 16  1  0
 16 17  2  0
 16 18  1  0
 18 19  1  0
 19 20  1  0
 20 21  1  0
 21 22  1  0
 22 23  1  0
 22 24  1  0
 24 25  1  0
 25 26  2  0
 14  6  1  0
 25 15  1  0
 14  9  1  0
 24 18  1  0
 23 19  1  0
  4 27  1  6
  5 28  1  0
  5 29  1  0
  7 30  1  0
  8 31  1  0
 10 32  1  0
 11 33  1  0
 12 34  1  0
 13 35  1  0
 15 36  1  0
 18 37  1  6
 19 38  1  1
 20 39  1  0
 20 40  1  0
 21 41  1  0
 21 42  1  0
 22 43  1  1
 24 44  1  6
M  CHG  2   3  -1  15   1
M  END
>  <UniqueID>  (47) 
46

>  <SMILES>  (47) 
O=C([O-])[C@H](Cc1c[nH]c2ccccc12)[NH+]1C(=O)[C@@H]2[C@H]3CC[C@H](O3)[C@@H]2C1=O

>  <Energy>  (47) 
108.80502492569637

>  <Genealogy>  (47) 
O=C([O-])[C@H](Cc1c[nH]c2ccccc12)[NH+]1C(=O)[C@@H]2[C@H]3CC[C@H](O3)[C@@H]2C1=O (protonated)
O=C([O-])[C@H](Cc1c[nH]c2ccccc12)[NH+]1C(=O)[C@@H]2[C@H]3CC[C@H](O3)[C@@H]2C1=O (3D coordinates assigned)
O=C([O-])[C@H](Cc1c[nH]c2ccccc12)[NH+]1C(=O)[C@@H]2[C@H]3CC[C@H](O3)[C@@H]2C1=O (nonaromatic ring conformer: 108.80502492569637 kcal/mol)

$$$$
untitled_line_47
     RDKit          3D

 33 35  0  0  0  0  0  0  0  0999 V2000
   -1.4891    2.3750    2.8381 O   0  0  0  0  0  0  0  0  0  0  0  0
   -1.9293    2.2484    1.6643 C   0  0  0  0  0  0  0  0  0  0  0  0
   -3.1620    2.7989    1.3363 O   0  0  0  0  0  1  0  0  0  0  0  0
   -1.1113    1.5568    0.6005 C   0  0  2  0  0  0  0  0  0  0  0  0
   -0.4330    0.2834    1.1911 C   0  0  0  0  0  0  0  0  0  0  0  0
    0.1030   -0.6509    0.1437 C   0  0  0  0  0  0  0  0  0  0  0  0
    1.4419   -0.9521   -0.0898 C   0  0  0  0  0  0  0  0  0  0  0  0
    1.5579   -1.8353   -1.1070 N   0  0  0  0  0  0  0  0  0  0  0  0
    0.3042   -2.1056   -1.5091 C   0  0  0  0  0  0  0  0  0  0  0  0
   -0.0866   -2.9761   -2.5255 C   0  0  0  0  0  0  0  0  0  0  0  0
   -1.4638   -3.1265   -2.7693 C   0  0  0  0  0  0  0  0  0  0  0  0
   -2.4089   -2.4166   -1.9962 C   0  0  0  0  0  0  0  0  0  0  0  0
   -1.9857   -1.5462   -0.9754 C   0  0  0  0  0  0  0  0  0  0  0  0
   -0.6130   -1.4081   -0.7646 C   0  0  0  0  0  0  0  0  0  0  0  0
   -0.1899    2.5349   -0.0458 N   0  0  0  0  0  4  0  0  0  0  0  0
    0.3673    2.0502   -1.2773 C   0  0  0  0  0  0  0  0  0  0  0  0
   -0.3333    1.7213   -2.2720 O   0  0  0  0  0  0  0  0  0  0  0  0
    1.8249    2.0399   -1.2755 C   0  0  0  0  0  0  0  0  0  0  0  0
    2.2211    2.4791   -0.0960 C   0  0  0  0  0  0  0  0  0  0  0  0
    1.0257    2.7903    0.6779 C   0  0  0  0  0  0  0  0  0  0  0  0
    1.0535    3.2982    1.8305 O   0  0  0  0  0  0  0  0  0  0  0  0
   -1.8487    1.2179   -0.1605 H   0  0  0  0  0  0  0  0  0  0  0  0
    0.3763    0.5565    1.9011 H   0  0  0  0  0  0  0  0  0  0  0  0
   -1.1854   -0.2859    1.7800 H   0  0  0  0  0  0  0  0  0  0  0  0
    2.2844   -0.5435    0.4527 H   0  0  0  0  0  0  0  0  0  0  0  0
    2.4438   -2.2305   -1.4934 H   0  0  0  0  0  0  0  0  0  0  0  0
    0.6449   -3.5219   -3.1073 H   0  0  0  0  0  0  0  0  0  0  0  0
   -1.8013   -3.7947   -3.5508 H   0  0  0  0  0  0  0  0  0  0  0  0
   -3.4661   -2.5459   -2.1878 H   0  0  0  0  0  0  0  0  0  0  0  0
   -2.7070   -1.0114   -0.3720 H   0  0  0  0  0  0  0  0  0  0  0  0
   -0.6745    3.4429   -0.2411 H   0  0  0  0  0  0  0  0  0  0  0  0
    2.4731    1.7270   -2.0831 H   0  0  0  0  0  0  0  0  0  0  0  0
    3.2487    2.5920    0.2226 H   0  0  0  0  0  0  0  0  0  0  0  0
  1  2  2  0
  2  3  1  0
  2  4  1  0
  4  5  1  0
  5  6  1  0
  6  7  2  0
  7  8  1  0
  8  9  1  0
  9 10  2  0
 10 11  1  0
 11 12  2  0
 12 13  1  0
 13 14  2  0
  4 15  1  0
 15 16  1  0
 16 17  2  0
 16 18  1  0
 18 19  2  0
 19 20  1  0
 20 21  2  0
 14  6  1  0
 20 15  1  0
 14  9  1  0
  4 22  1  6
  5 23  1  0
  5 24  1  0
  7 25  1  0
  8 26  1  0
 10 27  1  0
 11 28  1  0
 12 29  1  0
 13 30  1  0
 15 31  1  0
 18 32  1  0
 19 33  1  0
M  CHG  2   3  -1  15   1
M  END
>  <UniqueID>  (48) 
47

>  <SMILES>  (48) 
O=C([O-])[C@H](Cc1c[nH]c2ccccc12)[NH+]1C(=O)C=CC1=O

>  <Energy>  (48) 
89.157781696456

>  <Genealogy>  (48) 
O=C([O-])[C@H](Cc1c[nH]c2ccccc12)[NH+]1C(=O)C=CC1=O (protonated)
O=C([O-])[C@H](Cc1c[nH]c2ccccc12)[NH+]1C(=O)C=CC1=O (3D coordinates assigned)
O=C([O-])[C@H](Cc1c[nH]c2ccccc12)[NH+]1C(=O)C=CC1=O (nonaromatic ring conformer: 89.157781696456 kcal/mol)

$$$$
untitled_line_48
     RDKit          3D

 51 54  0  0  0  0  0  0  0  0999 V2000
   -1.1049   -0.8375   -0.4515 O   0  0  0  0  0  0  0  0  0  0  0  0
   -0.3115    0.0489   -0.0323 C   0  0  0  0  0  0  0  0  0  0  0  0
    0.9669    0.3064   -0.7780 C   0  0  0  0  0  0  0  0  0  0  0  0
    0.7280    0.6275   -2.2630 C   0  0  0  0  0  0  0  0  0  0  0  0
   -0.1171    1.8905   -2.4973 C   0  0  0  0  0  0  0  0  0  0  0  0
    0.5246    3.1186   -1.9156 C   0  0  0  0  0  0  0  0  0  0  0  0
    1.7383    3.6792   -2.3040 C   0  0  0  0  0  0  0  0  0  0  0  0
    2.0219    4.7632   -1.5471 N   0  0  0  0  0  0  0  0  0  0  0  0
    0.9983    4.8933   -0.6856 C   0  0  0  0  0  0  0  0  0  0  0  0
    0.8421    5.8703    0.2967 C   0  0  0  0  0  0  0  0  0  0  0  0
   -0.3167    5.8235    1.0926 C   0  0  0  0  0  0  0  0  0  0  0  0
   -1.2831    4.8142    0.8900 C   0  0  0  0  0  0  0  0  0  0  0  0
   -1.0985    3.8396   -0.1072 C   0  0  0  0  0  0  0  0  0  0  0  0
    0.0623    3.9090   -0.8797 C   0  0  0  0  0  0  0  0  0  0  0  0
   -0.6038    0.7749    1.1722 N   0  0  0  0  0  0  0  0  0  0  0  0
   -1.7399    0.4468    2.0389 C   0  0  1  0  0  0  0  0  0  0  0  0
   -1.2790   -0.4281    3.2171 C   0  0  0  0  0  0  0  0  0  0  0  0
   -0.7280   -1.7408    2.7411 C   0  0  0  0  0  0  0  0  0  0  0  0
    0.6141   -2.0535    2.5444 C   0  0  0  0  0  0  0  0  0  0  0  0
    0.7373   -3.2905    2.0116 N   0  0  0  0  0  0  0  0  0  0  0  0
   -0.5147   -3.7561    1.8597 C   0  0  0  0  0  0  0  0  0  0  0  0
   -0.9006   -4.9820    1.3195 C   0  0  0  0  0  0  0  0  0  0  0  0
   -2.2777   -5.2553    1.2268 C   0  0  0  0  0  0  0  0  0  0  0  0
   -3.2272   -4.3060    1.6666 C   0  0  0  0  0  0  0  0  0  0  0  0
   -2.8085   -3.0755    2.2046 C   0  0  0  0  0  0  0  0  0  0  0  0
   -1.4368   -2.8366    2.2900 C   0  0  0  0  0  0  0  0  0  0  0  0
   -2.3631    1.7152    2.5474 C   0  0  0  0  0  0  0  0  0  0  0  0
   -3.5258    2.0378    2.1871 O   0  0  0  0  0  0  0  0  0  0  0  0
   -1.6535    2.5533    3.3996 O   0  0  0  0  0  1  0  0  0  0  0  0
    1.5352    1.1342   -0.3028 H   0  0  0  0  0  0  0  0  0  0  0  0
    1.5993   -0.6042   -0.7071 H   0  0  0  0  0  0  0  0  0  0  0  0
    0.2237   -0.2360   -2.7490 H   0  0  0  0  0  0  0  0  0  0  0  0
    1.7132    0.7499   -2.7634 H   0  0  0  0  0  0  0  0  0  0  0  0
   -1.1353    1.7449   -2.0804 H   0  0  0  0  0  0  0  0  0  0  0  0
   -0.2339    2.0420   -3.5916 H   0  0  0  0  0  0  0  0  0  0  0  0
    2.3804    3.3094   -3.0927 H   0  0  0  0  0  0  0  0  0  0  0  0
    2.8672    5.3720   -1.6194 H   0  0  0  0  0  0  0  0  0  0  0  0
    1.5872    6.6415    0.4428 H   0  0  0  0  0  0  0  0  0  0  0  0
   -0.4694    6.5672    1.8637 H   0  0  0  0  0  0  0  0  0  0  0  0
   -2.1725    4.7904    1.5060 H   0  0  0  0  0  0  0  0  0  0  0  0
   -1.8381    3.0661   -0.2630 H   0  0  0  0  0  0  0  0  0  0  0  0
    0.1014    1.4634    1.5215 H   0  0  0  0  0  0  0  0  0  0  0  0
   -2.5140   -0.1085    1.4633 H   0  0  0  0  0  0  0  0  0  0  0  0
   -0.4994    0.1039    3.8054 H   0  0  0  0  0  0  0  0  0  0  0  0
   -2.1376   -0.6258    3.8952 H   0  0  0  0  0  0  0  0  0  0  0  0
    1.4513   -1.4017    2.7576 H   0  0  0  0  0  0  0  0  0  0  0  0
    1.6261   -3.7732    1.7517 H   0  0  0  0  0  0  0  0  0  0  0  0
   -0.1659   -5.6994    0.9776 H   0  0  0  0  0  0  0  0  0  0  0  0
   -2.6117   -6.1974    0.8121 H   0  0  0  0  0  0  0  0  0  0  0  0
   -4.2838   -4.5256    1.5866 H   0  0  0  0  0  0  0  0  0  0  0  0
   -3.5301   -2.3413    2.5383 H   0  0  0  0  0  0  0  0  0  0  0  0
  1  2  2  0
  2  3  1  0
  3  4  1  0
  4  5  1  0
  5  6  1  0
  6  7  2  0
  7  8  1  0
  8  9  1  0
  9 10  2  0
 10 11  1  0
 11 12  2  0
 12 13  1  0
 13 14  2  0
  2 15  1  0
 15 16  1  0
 16 17  1  0
 17 18  1  0
 18 19  2  0
 19 20  1  0
 20 21  1  0
 21 22  2  0
 22 23  1  0
 23 24  2  0
 24 25  1  0
 25 26  2  0
 16 27  1  0
 27 28  2  0
 27 29  1  0
 14  6  1  0
 26 18  1  0
 14  9  1  0
 26 21  1  0
  3 30  1  0
  3 31  1  0
  4 32  1  0
  4 33  1  0
  5 34  1  0
  5 35  1  0
  7 36  1  0
  8 37  1  0
 10 38  1  0
 11 39  1  0
 12 40  1  0
 13 41  1  0
 15 42  1  0
 16 43  1  6
 17 44  1  0
 17 45  1  0
 19 46  1  0
 20 47  1  0
 22 48  1  0
 23 49  1  0
 24 50  1  0
 25 51  1  0
M  CHG  1  29  -1
M  END
>  <UniqueID>  (49) 
48

>  <SMILES>  (49) 
O=C(CCCc1c[nH]c2ccccc12)N[C@@H](Cc1c[nH]c2ccccc12)C(=O)[O-]

>  <Energy>  (49) 
108.00899204786617

>  <Genealogy>  (49) 
O=C(CCCc1c[nH]c2ccccc12)N[C@@H](Cc1c[nH]c2ccccc12)C(=O)[O-] (protonated)
O=C(CCCc1c[nH]c2ccccc12)N[C@@H](Cc1c[nH]c2ccccc12)C(=O)[O-] (3D coordinates assigned)
O=C(CCCc1c[nH]c2ccccc12)N[C@@H](Cc1c[nH]c2ccccc12)C(=O)[O-] (optimized conformer: 108.00899204786617 kcal/mol)

$$$$
untitled_line_49
     RDKit          3D

 52 55  0  0  0  0  0  0  0  0999 V2000
    1.7294   -0.0227   -1.5316 H   0  0  0  0  0  0  0  0  0  0  0  0
    0.9382    0.6116   -1.1489 C   0  0  0  0  0  0  0  0  0  0  0  0
   -0.2726    0.5565   -1.7259 C   0  0  0  0  0  0  0  0  0  0  0  0
   -1.6517    1.6409   -1.3351 S   0  0  0  0  0  0  0  0  0  0  0  0
   -2.6828    0.6165   -2.3902 C   0  0  0  0  0  0  0  0  0  0  0  0
   -4.3157    0.7101   -2.2743 S   0  0  0  0  0  0  0  0  0  0  0  0
   -1.9947   -0.4077   -3.1281 N   0  0  0  0  0  0  0  0  0  0  0  0
   -2.6109   -1.5109   -3.8916 C   0  0  2  0  0  0  0  0  0  0  0  0
   -1.8257   -2.0176   -4.4963 H   0  0  0  0  0  0  0  0  0  0  0  0
   -3.6060   -0.9821   -4.8920 C   0  0  0  0  0  0  0  0  0  0  0  0
   -3.2225   -0.1842   -5.7886 O   0  0  0  0  0  0  0  0  0  0  0  0
   -4.9419   -1.3674   -4.8499 O   0  0  0  0  0  1  0  0  0  0  0  0
   -3.2187   -2.5735   -2.9484 C   0  0  0  0  0  0  0  0  0  0  0  0
   -4.0384   -2.1404   -2.3397 H   0  0  0  0  0  0  0  0  0  0  0  0
   -3.6576   -3.3950   -3.5558 H   0  0  0  0  0  0  0  0  0  0  0  0
   -2.1724   -3.1652   -2.0460 C   0  0  0  0  0  0  0  0  0  0  0  0
   -1.2097   -4.1022   -2.4119 C   0  0  0  0  0  0  0  0  0  0  0  0
   -1.1420   -4.5921   -3.3744 H   0  0  0  0  0  0  0  0  0  0  0  0
   -0.3212   -4.2853   -1.4095 N   0  0  0  0  0  0  0  0  0  0  0  0
    0.5140   -4.9123   -1.4215 H   0  0  0  0  0  0  0  0  0  0  0  0
   -0.7051   -3.4628   -0.4183 C   0  0  0  0  0  0  0  0  0  0  0  0
   -0.0623   -3.2561    0.8015 C   0  0  0  0  0  0  0  0  0  0  0  0
    0.8377   -3.8008    1.0607 H   0  0  0  0  0  0  0  0  0  0  0  0
   -0.6114   -2.3061    1.6816 C   0  0  0  0  0  0  0  0  0  0  0  0
   -0.1343   -2.1179    2.6354 H   0  0  0  0  0  0  0  0  0  0  0  0
   -1.7769   -1.5921    1.3266 C   0  0  0  0  0  0  0  0  0  0  0  0
   -2.1891   -0.8618    2.0104 H   0  0  0  0  0  0  0  0  0  0  0  0
   -2.4010   -1.8170    0.0869 C   0  0  0  0  0  0  0  0  0  0  0  0
   -3.2898   -1.2680   -0.1886 H   0  0  0  0  0  0  0  0  0  0  0  0
   -1.8335   -2.7644   -0.7666 C   0  0  0  0  0  0  0  0  0  0  0  0
   -0.6159   -0.4029   -2.7694 C   0  0  0  0  0  0  0  0  0  0  0  0
    0.2219   -1.1907   -3.2871 O   0  0  0  0  0  0  0  0  0  0  0  0
    1.2888    1.5225   -0.0404 C   0  0  0  0  0  0  0  0  0  0  0  0
    2.5083    2.2096   -0.0826 C   0  0  0  0  0  0  0  0  0  0  0  0
    3.1617    2.1096   -0.9405 H   0  0  0  0  0  0  0  0  0  0  0  0
    2.8906    3.0411    0.9733 C   0  0  0  0  0  0  0  0  0  0  0  0
    3.8313    3.5697    0.9017 H   0  0  0  0  0  0  0  0  0  0  0  0
    2.0698    3.1798    2.1130 C   0  0  0  0  0  0  0  0  0  0  0  0
    2.4488    4.0410    3.2211 N   0  0  0  0  0  4  0  0  0  0  0  0
    1.7224    3.9860    3.9747 H   0  0  0  0  0  0  0  0  0  0  0  0
    3.7216    3.6073    3.8213 C   0  0  0  0  0  0  0  0  0  0  0  0
    3.6633    2.5371    4.1152 H   0  0  0  0  0  0  0  0  0  0  0  0
    3.9330    4.1962    4.7405 H   0  0  0  0  0  0  0  0  0  0  0  0
    4.5726    3.7450    3.1198 H   0  0  0  0  0  0  0  0  0  0  0  0
    2.5167    5.4478    2.7929 C   0  0  0  0  0  0  0  0  0  0  0  0
    3.3281    5.6102    2.0512 H   0  0  0  0  0  0  0  0  0  0  0  0
    2.7052    6.1084    3.6676 H   0  0  0  0  0  0  0  0  0  0  0  0
    1.5505    5.7594    2.3382 H   0  0  0  0  0  0  0  0  0  0  0  0
    0.8590    2.4643    2.1592 C   0  0  0  0  0  0  0  0  0  0  0  0
    0.2102    2.5387    3.0229 H   0  0  0  0  0  0  0  0  0  0  0  0
    0.4771    1.6392    1.0984 C   0  0  0  0  0  0  0  0  0  0  0  0
   -0.4414    1.0734    1.1808 H   0  0  0  0  0  0  0  0  0  0  0  0
  1  2  1  0
  2  3  2  0
  3  4  1  0
  4  5  1  0
  5  6  2  0
  5  7  1  0
  7  8  1  0
  8  9  1  6
  8 10  1  0
 10 11  2  0
 10 12  1  0
  8 13  1  0
 13 14  1  0
 13 15  1  0
 13 16  1  0
 16 17  2  0
 17 18  1  0
 17 19  1  0
 19 20  1  0
 19 21  1  0
 21 22  2  0
 22 23  1  0
 22 24  1  0
 24 25  1  0
 24 26  2  0
 26 27  1  0
 26 28  1  0
 28 29  1  0
 28 30  2  0
  7 31  1  0
 31 32  2  0
  2 33  1  0
 33 34  2  0
 34 35  1  0
 34 36  1  0
 36 37  1  0
 36 38  2  0
 38 39  1  0
 39 40  1  0
 39 41  1  0
 41 42  1  0
 41 43  1  0
 41 44  1  0
 39 45  1  0
 45 46  1  0
 45 47  1  0
 45 48  1  0
 38 49  1  0
 49 50  1  0
 49 51  2  0
 51 52  1  0
 31  3  1  0
 51 33  1  0
 30 16  1  0
 30 21  1  0
M  CHG  2  12  -1  39   1
M  END
>  <UniqueID>  (50) 
49

>  <SMILES>  (50) 
C[NH+](C)c1ccc(/C=C2\SC(=S)N([C@@H](Cc3c[nH]c4ccccc34)C(=O)[O-])C2=O)cc1

>  <Energy>  (50) 
112.29023529934055

>  <Genealogy>  (50) 
C[NH+](C)c1ccc(/C=C2\SC(=S)N([C@@H](Cc3c[nH]c4ccccc34)C(=O)[O-])C2=O)cc1 (protonated)
C[NH+](C)c1ccc(/C=C2\SC(=S)N([C@@H](Cc3c[nH]c4ccccc34)C(=O)[O-])C2=O)cc1 (cis-trans isomerization)
C[NH+](C)c1ccc(/C=C2\SC(=S)N([C@@H](Cc3c[nH]c4ccccc34)C(=O)[O-])C2=O)cc1 (3D coordinates assigned)
C[NH+](C)c1ccc(/C=C2\SC(=S)N([C@@H](Cc3c[nH]c4ccccc34)C(=O)[O-])C2=O)cc1 (nonaromatic ring conformer: 112.29023529934055 kcal/mol)

$$$$
untitled_line_50
     RDKit          3D

 30 31  0  0  0  0  0  0  0  0999 V2000
    0.0317    2.9080   -0.1885 O   0  0  0  0  0  0  0  0  0  0  0  0
    0.1161    1.9537   -1.0081 C   0  0  0  0  0  0  0  0  0  0  0  0
   -0.8443    1.8679   -2.1463 C   0  0  0  0  0  0  0  0  0  0  0  0
   -0.1814    2.7258   -3.5556 S   0  0  0  0  0  1  0  0  0  0  0  0
    1.1488    0.9704   -0.8779 N   0  0  0  0  0  2  0  0  0  0  0  0
    2.0603    0.8824    0.2619 C   0  0  1  0  0  0  0  0  0  0  0  0
    1.4814   -0.0375    1.3508 C   0  0  0  0  0  0  0  0  0  0  0  0
    0.2308    0.5303    1.9570 C   0  0  0  0  0  0  0  0  0  0  0  0
    0.1629    1.5035    2.9495 C   0  0  0  0  0  0  0  0  0  0  0  0
   -1.1240    1.8415    3.1922 N   0  0  0  0  0  0  0  0  0  0  0  0
   -1.8681    1.0987    2.3543 C   0  0  0  0  0  0  0  0  0  0  0  0
   -3.2545    1.1231    2.2092 C   0  0  0  0  0  0  0  0  0  0  0  0
   -3.8289    0.2830    1.2379 C   0  0  0  0  0  0  0  0  0  0  0  0
   -3.0141   -0.5504    0.4401 C   0  0  0  0  0  0  0  0  0  0  0  0
   -1.6176   -0.5537    0.6079 C   0  0  0  0  0  0  0  0  0  0  0  0
   -1.0771    0.2863    1.5826 C   0  0  0  0  0  0  0  0  0  0  0  0
    3.3727    0.3341   -0.2120 C   0  0  0  0  0  0  0  0  0  0  0  0
    4.4513    0.8827    0.1367 O   0  0  0  0  0  0  0  0  0  0  0  0
    3.4091   -0.8045   -1.0085 O   0  0  0  0  0  1  0  0  0  0  0  0
   -1.8159    2.3243   -1.8615 H   0  0  0  0  0  0  0  0  0  0  0  0
   -1.0187    0.8043   -2.4133 H   0  0  0  0  0  0  0  0  0  0  0  0
    2.2363    1.8976    0.6843 H   0  0  0  0  0  0  0  0  0  0  0  0
    1.2701   -1.0439    0.9287 H   0  0  0  0  0  0  0  0  0  0  0  0
    2.2322   -0.1687    2.1609 H   0  0  0  0  0  0  0  0  0  0  0  0
    1.0102    1.9521    3.4516 H   0  0  0  0  0  0  0  0  0  0  0  0
   -1.4648    2.5524    3.8770 H   0  0  0  0  0  0  0  0  0  0  0  0
   -3.8699    1.7724    2.8184 H   0  0  0  0  0  0  0  0  0  0  0  0
   -4.9020    0.2792    1.0978 H   0  0  0  0  0  0  0  0  0  0  0  0
   -3.4664   -1.1875   -0.3086 H   0  0  0  0  0  0  0  0  0  0  0  0
   -0.9882   -1.1812   -0.0091 H   0  0  0  0  0  0  0  0  0  0  0  0
  1  2  2  0
  2  3  1  0
  3  4  1  0
  2  5  1  0
  5  6  1  0
  6  7  1  0
  7  8  1  0
  8  9  2  0
  9 10  1  0
 10 11  1  0
 11 12  2  0
 12 13  1  0
 13 14  2  0
 14 15  1  0
 15 16  2  0
  6 17  1  0
 17 18  2  0
 17 19  1  0
 16  8  1  0
 16 11  1  0
  3 20  1  0
  3 21  1  0
  6 22  1  1
  7 23  1  0
  7 24  1  0
  9 25  1  0
 10 26  1  0
 12 27  1  0
 13 28  1  0
 14 29  1  0
 15 30  1  0
M  CHG  3   4  -1   5  -1  19  -1
M  END
>  <UniqueID>  (51) 
50

>  <SMILES>  (51) 
O=C(C[S-])[N-][C@@H](Cc1c[nH]c2ccccc12)C(=O)[O-]

>  <Energy>  (51) 
55.581986968956755

>  <Genealogy>  (51) 
O=C(C[S-])[N-][C@@H](Cc1c[nH]c2ccccc12)C(=O)[O-] (protonated)
O=C(C[S-])[N-][C@@H](Cc1c[nH]c2ccccc12)C(=O)[O-] (3D coordinates assigned)
O=C(C[S-])[N-][C@@H](Cc1c[nH]c2ccccc12)C(=O)[O-] (optimized conformer: 55.581986968956755 kcal/mol)

$$$$
untitled_line_51
     RDKit          3D

 31 32  0  0  0  0  0  0  0  0999 V2000
   -0.5467    3.4208    3.0728 C   0  0  0  0  0  0  0  0  0  0  0  0
   -0.4033    1.9747    2.7283 C   0  0  0  0  0  0  0  0  0  0  0  0
   -1.4359    1.2769    2.5371 O   0  0  0  0  0  0  0  0  0  0  0  0
    0.9042    1.4035    2.5729 N   0  0  0  0  0  0  0  0  0  0  0  0
    1.1230    0.0411    2.0748 C   0  0  1  0  0  0  0  0  0  0  0  0
    1.5341    0.0720    0.5934 C   0  0  0  0  0  0  0  0  0  0  0  0
    0.4501    0.6634   -0.2603 C   0  0  0  0  0  0  0  0  0  0  0  0
    0.3650    1.9830   -0.6951 C   0  0  0  0  0  0  0  0  0  0  0  0
   -0.7949    2.1867   -1.3605 N   0  0  0  0  0  0  0  0  0  0  0  0
   -1.4471    1.0113   -1.3388 C   0  0  0  0  0  0  0  0  0  0  0  0
   -2.7036    0.7321   -1.8746 C   0  0  0  0  0  0  0  0  0  0  0  0
   -3.2132   -0.5693   -1.7121 C   0  0  0  0  0  0  0  0  0  0  0  0
   -2.4662   -1.5496   -1.0215 C   0  0  0  0  0  0  0  0  0  0  0  0
   -1.2020   -1.2382   -0.4886 C   0  0  0  0  0  0  0  0  0  0  0  0
   -0.7208    0.0582   -0.6718 C   0  0  0  0  0  0  0  0  0  0  0  0
    2.1840   -0.6339    2.8963 C   0  0  0  0  0  0  0  0  0  0  0  0
    3.3326   -0.1263    3.0001 O   0  0  0  0  0  0  0  0  0  0  0  0
    1.9054   -1.8334    3.5395 O   0  0  0  0  0  1  0  0  0  0  0  0
    0.1445    3.6804    3.9017 H   0  0  0  0  0  0  0  0  0  0  0  0
   -0.2993    4.0368    2.1832 H   0  0  0  0  0  0  0  0  0  0  0  0
   -1.5869    3.6442    3.3918 H   0  0  0  0  0  0  0  0  0  0  0  0
    1.7320    2.0333    2.6815 H   0  0  0  0  0  0  0  0  0  0  0  0
    0.1915   -0.5587    2.1738 H   0  0  0  0  0  0  0  0  0  0  0  0
    2.4656    0.6669    0.4684 H   0  0  0  0  0  0  0  0  0  0  0  0
    1.7436   -0.9613    0.2407 H   0  0  0  0  0  0  0  0  0  0  0  0
    1.1013    2.7553   -0.5147 H   0  0  0  0  0  0  0  0  0  0  0  0
   -1.1227    3.0827   -1.7849 H   0  0  0  0  0  0  0  0  0  0  0  0
   -3.2718    1.4920   -2.3952 H   0  0  0  0  0  0  0  0  0  0  0  0
   -4.1856   -0.8196   -2.1155 H   0  0  0  0  0  0  0  0  0  0  0  0
   -2.8700   -2.5461   -0.8993 H   0  0  0  0  0  0  0  0  0  0  0  0
   -0.6265   -1.9825    0.0461 H   0  0  0  0  0  0  0  0  0  0  0  0
  1  2  1  0
  2  3  2  0
  2  4  1  0
  4  5  1  0
  5  6  1  0
  6  7  1  0
  7  8  2  0
  8  9  1  0
  9 10  1  0
 10 11  2  0
 11 12  1  0
 12 13  2  0
 13 14  1  0
 14 15  2  0
  5 16  1  0
 16 17  2  0
 16 18  1  0
 15  7  1  0
 15 10  1  0
  1 19  1  0
  1 20  1  0
  1 21  1  0
  4 22  1  0
  5 23  1  6
  6 24  1  0
  6 25  1  0
  8 26  1  0
  9 27  1  0
 11 28  1  0
 12 29  1  0
 13 30  1  0
 14 31  1  0
M  CHG  1  18  -1
M  END
>  <UniqueID>  (52) 
51

>  <SMILES>  (52) 
CC(=O)N[C@@H](Cc1c[nH]c2ccccc12)C(=O)[O-]

>  <Energy>  (52) 
56.940589143936

>  <Genealogy>  (52) 
CC(=O)N[C@@H](Cc1c[nH]c2ccccc12)C(=O)[O-] (protonated)
CC(=O)N[C@@H](Cc1c[nH]c2ccccc12)C(=O)[O-] (3D coordinates assigned)
CC(=O)N[C@@H](Cc1c[nH]c2ccccc12)C(=O)[O-] (optimized conformer: 56.940589143936 kcal/mol)

$$$$
untitled_line_52
     RDKit          3D

 45 48  0  0  0  0  0  0  0  0999 V2000
   -1.4887   -0.2470   -2.3926 O   0  0  0  0  0  0  0  0  0  0  0  0
   -1.9367   -0.0008   -1.2402 C   0  0  0  0  0  0  0  0  0  0  0  0
   -3.4246   -0.0395   -0.9895 C   0  0  0  0  0  0  0  0  0  0  0  0
   -3.8576   -1.1923   -0.1674 N   0  0  0  0  0  4  0  0  0  0  0  0
   -3.2839   -1.1657    1.1575 C   0  0  0  0  0  0  0  0  0  0  0  0
   -3.5181   -0.2555    1.9972 O   0  0  0  0  0  0  0  0  0  0  0  0
   -2.4290   -2.3157    1.4106 C   0  0  0  0  0  0  0  0  0  0  0  0
   -1.6501   -2.6501    2.5173 C   0  0  0  0  0  0  0  0  0  0  0  0
   -0.8987   -3.8376    2.4589 C   0  0  0  0  0  0  0  0  0  0  0  0
   -0.9418   -4.6531    1.3069 C   0  0  0  0  0  0  0  0  0  0  0  0
   -1.7351   -4.2857    0.2049 C   0  0  0  0  0  0  0  0  0  0  0  0
   -2.4683   -3.1033    0.2937 C   0  0  0  0  0  0  0  0  0  0  0  0
   -3.3473   -2.4487   -0.6647 C   0  0  0  0  0  0  0  0  0  0  0  0
   -3.6509   -2.9228   -1.7921 O   0  0  0  0  0  0  0  0  0  0  0  0
   -1.0415    0.2821   -0.1606 N   0  0  0  0  0  2  0  0  0  0  0  0
    0.4134    0.3151   -0.2909 C   0  0  1  0  0  0  0  0  0  0  0  0
    0.8749    1.6116   -0.9831 C   0  0  0  0  0  0  0  0  0  0  0  0
    0.4028    2.8491   -0.2695 C   0  0  0  0  0  0  0  0  0  0  0  0
   -0.8396    3.4613   -0.4098 C   0  0  0  0  0  0  0  0  0  0  0  0
   -0.9463    4.5130    0.4339 N   0  0  0  0  0  0  0  0  0  0  0  0
    0.2141    4.5657    1.1104 C   0  0  0  0  0  0  0  0  0  0  0  0
    0.5702    5.4744    2.1062 C   0  0  0  0  0  0  0  0  0  0  0  0
    1.8389    5.3372    2.6985 C   0  0  0  0  0  0  0  0  0  0  0  0
    2.7123    4.3054    2.2890 C   0  0  0  0  0  0  0  0  0  0  0  0
    2.3258    3.4019    1.2824 C   0  0  0  0  0  0  0  0  0  0  0  0
    1.0628    3.5645    0.7116 C   0  0  0  0  0  0  0  0  0  0  0  0
    1.0492    0.1608    1.0615 C   0  0  0  0  0  0  0  0  0  0  0  0
    0.4747    0.5943    2.0958 O   0  0  0  0  0  0  0  0  0  0  0  0
    2.3062   -0.4199    1.1707 O   0  0  0  0  0  1  0  0  0  0  0  0
   -3.7264    0.9098   -0.4940 H   0  0  0  0  0  0  0  0  0  0  0  0
   -3.9587   -0.0664   -1.9656 H   0  0  0  0  0  0  0  0  0  0  0  0
   -4.9012   -1.2333   -0.1000 H   0  0  0  0  0  0  0  0  0  0  0  0
   -1.6199   -2.0139    3.3922 H   0  0  0  0  0  0  0  0  0  0  0  0
   -0.2826   -4.1260    3.3005 H   0  0  0  0  0  0  0  0  0  0  0  0
   -0.3589   -5.5640    1.2699 H   0  0  0  0  0  0  0  0  0  0  0  0
   -1.7703   -4.8993   -0.6856 H   0  0  0  0  0  0  0  0  0  0  0  0
    0.7365   -0.5503   -0.9105 H   0  0  0  0  0  0  0  0  0  0  0  0
    0.4850    1.6300   -2.0233 H   0  0  0  0  0  0  0  0  0  0  0  0
    1.9836    1.6213   -1.0587 H   0  0  0  0  0  0  0  0  0  0  0  0
   -1.6260    3.1459   -1.0830 H   0  0  0  0  0  0  0  0  0  0  0  0
   -1.7701    5.1452    0.5431 H   0  0  0  0  0  0  0  0  0  0  0  0
   -0.1075    6.2592    2.4162 H   0  0  0  0  0  0  0  0  0  0  0  0
    2.1465    6.0259    3.4744 H   0  0  0  0  0  0  0  0  0  0  0  0
    3.6851    4.2084    2.7532 H   0  0  0  0  0  0  0  0  0  0  0  0
    2.9900    2.6077    0.9678 H   0  0  0  0  0  0  0  0  0  0  0  0
  1  2  2  0
  2  3  1  0
  3  4  1  0
  4  5  1  0
  5  6  2  0
  5  7  1  0
  7  8  2  0
  8  9  1  0
  9 10  2  0
 10 11  1  0
 11 12  2  0
 12 13  1  0
 13 14  2  0
  2 15  1  0
 15 16  1  0
 16 17  1  0
 17 18  1  0
 18 19  2  0
 19 20  1  0
 20 21  1  0
 21 22  2  0
 22 23  1  0
 23 24  2  0
 24 25  1  0
 25 26  2  0
 16 27  1  0
 27 28  2  0
 27 29  1  0
 13  4  1  0
 26 18  1  0
 12  7  1  0
 26 21  1  0
  3 30  1  0
  3 31  1  0
  4 32  1  0
  8 33  1  0
  9 34  1  0
 10 35  1  0
 11 36  1  0
 16 37  1  6
 17 38  1  0
 17 39  1  0
 19 40  1  0
 20 41  1  0
 22 42  1  0
 23 43  1  0
 24 44  1  0
 25 45  1  0
M  CHG  3   4   1  15  -1  29  -1
M  END
>  <UniqueID>  (53) 
52

>  <SMILES>  (53) 
O=C(C[NH+]1C(=O)c2ccccc2C1=O)[N-][C@@H](Cc1c[nH]c2ccccc12)C(=O)[O-]

>  <Energy>  (53) 
103.08788933585423

>  <Genealogy>  (53) 
O=C(C[NH+]1C(=O)c2ccccc2C1=O)[N-][C@@H](Cc1c[nH]c2ccccc12)C(=O)[O-] (protonated)
O=C(C[NH+]1C(=O)c2ccccc2C1=O)[N-][C@@H](Cc1c[nH]c2ccccc12)C(=O)[O-] (3D coordinates assigned)
O=C(C[NH+]1C(=O)c2ccccc2C1=O)[N-][C@@H](Cc1c[nH]c2ccccc12)C(=O)[O-] (nonaromatic ring conformer: 103.08788933585423 kcal/mol)

$$$$
untitled_line_53
     RDKit          3D

 43 46  0  0  0  0  0  0  0  0999 V2000
   -0.0829    3.8756   -2.0665 C   0  0  0  0  0  0  0  0  0  0  0  0
   -0.2964    2.6480   -1.3818 O   0  0  0  0  0  0  0  0  0  0  0  0
    0.2895    2.3627   -0.1440 C   0  0  0  0  0  0  0  0  0  0  0  0
    1.0063    3.2243    0.4352 O   0  0  0  0  0  0  0  0  0  0  0  0
    0.0335    1.0354    0.5310 C   0  0  2  0  0  0  0  0  0  0  0  0
   -0.0379   -0.1237   -0.5033 C   0  0  0  0  0  0  0  0  0  0  0  0
    1.2783   -0.3207   -1.1995 C   0  0  0  0  0  0  0  0  0  0  0  0
    1.6385    0.1642   -2.4535 C   0  0  0  0  0  0  0  0  0  0  0  0
    2.9242   -0.1524   -2.7299 N   0  0  0  0  0  0  0  0  0  0  0  0
    3.3803   -0.8242   -1.6583 C   0  0  0  0  0  0  0  0  0  0  0  0
    4.6600   -1.3438   -1.4679 C   0  0  0  0  0  0  0  0  0  0  0  0
    4.9282   -2.0023   -0.2535 C   0  0  0  0  0  0  0  0  0  0  0  0
    3.9237   -2.1227    0.7327 C   0  0  0  0  0  0  0  0  0  0  0  0
    2.6416   -1.5869    0.5136 C   0  0  0  0  0  0  0  0  0  0  0  0
    2.4053   -0.9434   -0.7014 C   0  0  0  0  0  0  0  0  0  0  0  0
   -1.1649    1.1238    1.4084 N   0  0  0  0  0  4  0  0  0  0  0  0
   -1.3033   -0.0476    2.2435 C   0  0  0  0  0  0  0  0  0  0  0  0
   -0.4512   -0.3882    3.1078 O   0  0  0  0  0  0  0  0  0  0  0  0
   -2.5484   -0.7591    1.9980 C   0  0  0  0  0  0  0  0  0  0  0  0
   -3.0618   -1.9267    2.5611 C   0  0  0  0  0  0  0  0  0  0  0  0
   -4.3182   -2.3755    2.1157 C   0  0  0  0  0  0  0  0  0  0  0  0
   -5.0256   -1.6527    1.1303 C   0  0  0  0  0  0  0  0  0  0  0  0
   -4.4806   -0.4768    0.5836 C   0  0  0  0  0  0  0  0  0  0  0  0
   -3.2318   -0.0608    1.0432 C   0  0  0  0  0  0  0  0  0  0  0  0
   -2.4197    1.0932    0.6886 C   0  0  0  0  0  0  0  0  0  0  0  0
   -2.7895    2.0000   -0.1045 O   0  0  0  0  0  0  0  0  0  0  0  0
   -0.4426    4.7240   -1.4468 H   0  0  0  0  0  0  0  0  0  0  0  0
   -0.6472    3.8626   -3.0213 H   0  0  0  0  0  0  0  0  0  0  0  0
    0.9978    4.0030   -2.2887 H   0  0  0  0  0  0  0  0  0  0  0  0
    0.9184    0.8389    1.1805 H   0  0  0  0  0  0  0  0  0  0  0  0
   -0.3012   -1.0755    0.0040 H   0  0  0  0  0  0  0  0  0  0  0  0
   -0.8279    0.0713   -1.2603 H   0  0  0  0  0  0  0  0  0  0  0  0
    0.9983    0.7259   -3.1212 H   0  0  0  0  0  0  0  0  0  0  0  0
    3.4548    0.0889   -3.5964 H   0  0  0  0  0  0  0  0  0  0  0  0
    5.4243   -1.2426   -2.2274 H   0  0  0  0  0  0  0  0  0  0  0  0
    5.9113   -2.4171   -0.0731 H   0  0  0  0  0  0  0  0  0  0  0  0
    4.1422   -2.6293    1.6638 H   0  0  0  0  0  0  0  0  0  0  0  0
    1.8678   -1.6731    1.2655 H   0  0  0  0  0  0  0  0  0  0  0  0
   -1.1296    1.9725    2.0210 H   0  0  0  0  0  0  0  0  0  0  0  0
   -2.5115   -2.4717    3.3168 H   0  0  0  0  0  0  0  0  0  0  0  0
   -4.7452   -3.2789    2.5314 H   0  0  0  0  0  0  0  0  0  0  0  0
   -5.9923   -2.0046    0.7944 H   0  0  0  0  0  0  0  0  0  0  0  0
   -5.0146    0.0860   -0.1709 H   0  0  0  0  0  0  0  0  0  0  0  0
  1  2  1  0
  2  3  1  0
  3  4  2  0
  3  5  1  0
  5  6  1  0
  6  7  1  0
  7  8  2  0
  8  9  1  0
  9 10  1  0
 10 11  2  0
 11 12  1  0
 12 13  2  0
 13 14  1  0
 14 15  2  0
  5 16  1  0
 16 17  1  0
 17 18  2  0
 17 19  1  0
 19 20  2  0
 20 21  1  0
 21 22  2  0
 22 23  1  0
 23 24  2  0
 24 25  1  0
 25 26  2  0
 15  7  1  0
 25 16  1  0
 15 10  1  0
 24 19  1  0
  1 27  1  0
  1 28  1  0
  1 29  1  0
  5 30  1  1
  6 31  1  0
  6 32  1  0
  8 33  1  0
  9 34  1  0
 11 35  1  0
 12 36  1  0
 13 37  1  0
 14 38  1  0
 16 39  1  0
 20 40  1  0
 21 41  1  0
 22 42  1  0
 23 43  1  0
M  CHG  1  16   1
M  END
>  <UniqueID>  (54) 
53

>  <SMILES>  (54) 
COC(=O)[C@H](Cc1c[nH]c2ccccc12)[NH+]1C(=O)c2ccccc2C1=O

>  <Energy>  (54) 
103.98550877950447

>  <Genealogy>  (54) 
COC(=O)C(Cc1c[nH]c2ccccc12)[NH+]1C(=O)c2ccccc2C1=O (protonated)
COC(=O)[C@H](Cc1c[nH]c2ccccc12)[NH+]1C(=O)c2ccccc2C1=O (chirality)
COC(=O)[C@H](Cc1c[nH]c2ccccc12)[NH+]1C(=O)c2ccccc2C1=O (3D coordinates assigned)
COC(=O)[C@H](Cc1c[nH]c2ccccc12)[NH+]1C(=O)c2ccccc2C1=O (nonaromatic ring conformer: 103.98550877950447 kcal/mol)

$$$$
untitled_line_54
     RDKit          3D

 41 43  0  0  0  0  0  0  0  0999 V2000
    2.4287    0.3543    4.0172 O   0  0  0  0  0  0  0  0  0  0  0  0
    1.7355    0.1232    2.9915 C   0  0  0  0  0  0  0  0  0  0  0  0
    2.2480    0.5446    1.6428 C   0  0  0  0  0  0  0  0  0  0  0  0
    3.2161    1.5818    1.7868 O   0  0  0  0  0  0  0  0  0  0  0  0
    3.8664    2.2127    0.7154 C   0  0  0  0  0  0  0  0  0  0  0  0
    4.7667    3.2475    0.9996 C   0  0  0  0  0  0  0  0  0  0  0  0
    5.4341    3.9119   -0.0348 C   0  0  0  0  0  0  0  0  0  0  0  0
    5.2071    3.5445   -1.3633 C   0  0  0  0  0  0  0  0  0  0  0  0
    4.3126    2.5113   -1.6587 C   0  0  0  0  0  0  0  0  0  0  0  0
    3.6435    1.8450   -0.6270 C   0  0  0  0  0  0  0  0  0  0  0  0
    0.5140   -0.6134    3.1392 N   0  0  0  0  0  2  0  0  0  0  0  0
   -0.4380   -0.8961    2.0674 C   0  0  2  0  0  0  0  0  0  0  0  0
   -1.3622    0.3162    1.8550 C   0  0  0  0  0  0  0  0  0  0  0  0
   -2.1628    0.1794    0.5922 C   0  0  0  0  0  0  0  0  0  0  0  0
   -1.7172    0.4485   -0.6987 C   0  0  0  0  0  0  0  0  0  0  0  0
   -2.6820    0.1571   -1.6007 N   0  0  0  0  0  0  0  0  0  0  0  0
   -3.7273   -0.3051   -0.8917 C   0  0  0  0  0  0  0  0  0  0  0  0
   -4.9541   -0.7474   -1.3860 C   0  0  0  0  0  0  0  0  0  0  0  0
   -5.9066   -1.2135   -0.4617 C   0  0  0  0  0  0  0  0  0  0  0  0
   -5.6152   -1.2271    0.9204 C   0  0  0  0  0  0  0  0  0  0  0  0
   -4.3704   -0.7710    1.3916 C   0  0  0  0  0  0  0  0  0  0  0  0
   -3.4466   -0.3125    0.4511 C   0  0  0  0  0  0  0  0  0  0  0  0
   -1.2396   -2.1106    2.4368 C   0  0  0  0  0  0  0  0  0  0  0  0
   -1.4663   -3.0039    1.5788 O   0  0  0  0  0  0  0  0  0  0  0  0
   -1.7786   -2.2340    3.7126 O   0  0  0  0  0  1  0  0  0  0  0  0
    1.4122    0.9178    1.0167 H   0  0  0  0  0  0  0  0  0  0  0  0
    2.7131   -0.3354    1.1491 H   0  0  0  0  0  0  0  0  0  0  0  0
    4.9479    3.5386    2.0268 H   0  0  0  0  0  0  0  0  0  0  0  0
    6.1278    4.7118    0.1937 H   0  0  0  0  0  0  0  0  0  0  0  0
    5.7255    4.0590   -2.1638 H   0  0  0  0  0  0  0  0  0  0  0  0
    4.1385    2.2266   -2.6883 H   0  0  0  0  0  0  0  0  0  0  0  0
    2.9573    1.0484   -0.8827 H   0  0  0  0  0  0  0  0  0  0  0  0
    0.1226   -1.1170    1.1315 H   0  0  0  0  0  0  0  0  0  0  0  0
   -2.0398    0.4446    2.7265 H   0  0  0  0  0  0  0  0  0  0  0  0
   -0.7594    1.2459    1.7840 H   0  0  0  0  0  0  0  0  0  0  0  0
   -0.7375    0.8264   -0.9617 H   0  0  0  0  0  0  0  0  0  0  0  0
   -2.6186    0.2589   -2.6379 H   0  0  0  0  0  0  0  0  0  0  0  0
   -5.1660   -0.7385   -2.4471 H   0  0  0  0  0  0  0  0  0  0  0  0
   -6.8668   -1.5686   -0.8126 H   0  0  0  0  0  0  0  0  0  0  0  0
   -6.3531   -1.5948    1.6212 H   0  0  0  0  0  0  0  0  0  0  0  0
   -4.1420   -0.7820    2.4492 H   0  0  0  0  0  0  0  0  0  0  0  0
  1  2  2  0
  2  3  1  0
  3  4  1  0
  4  5  1  0
  5  6  2  0
  6  7  1  0
  7  8  2  0
  8  9  1  0
  9 10  2  0
  2 11  1  0
 11 12  1  0
 12 13  1  0
 13 14  1  0
 14 15  2  0
 15 16  1  0
 16 17  1  0
 17 18  2  0
 18 19  1  0
 19 20  2  0
 20 21  1  0
 21 22  2  0
 12 23  1  0
 23 24  2  0
 23 25  1  0
 10  5  1  0
 22 14  1  0
 22 17  1  0
  3 26  1  0
  3 27  1  0
  6 28  1  0
  7 29  1  0
  8 30  1  0
  9 31  1  0
 10 32  1  0
 12 33  1  6
 13 34  1  0
 13 35  1  0
 15 36  1  0
 16 37  1  0
 18 38  1  0
 19 39  1  0
 20 40  1  0
 21 41  1  0
M  CHG  2  11  -1  25  -1
M  END
>  <UniqueID>  (55) 
54

>  <SMILES>  (55) 
O=C(COc1ccccc1)[N-][C@H](Cc1c[nH]c2ccccc12)C(=O)[O-]

>  <Energy>  (55) 
71.07627281794598

>  <Genealogy>  (55) 
O=C(COc1ccccc1)[N-]C(Cc1c[nH]c2ccccc12)C(=O)[O-] (protonated)
O=C(COc1ccccc1)[N-][C@H](Cc1c[nH]c2ccccc12)C(=O)[O-] (chirality)
O=C(COc1ccccc1)[N-][C@H](Cc1c[nH]c2ccccc12)C(=O)[O-] (3D coordinates assigned)
O=C(COc1ccccc1)[N-][C@H](Cc1c[nH]c2ccccc12)C(=O)[O-] (optimized conformer: 71.07627281794598 kcal/mol)

$$$$
untitled_line_55
     RDKit          3D

 25 26  0  0  0  0  0  0  0  0999 V2000
    1.2080   -3.6282    1.4784 O   0  0  0  0  0  0  0  0  0  0  0  0
    1.4445   -2.4373    1.8136 C   0  0  0  0  0  0  0  0  0  0  0  0
    0.6250   -1.8103    2.7436 O   0  0  0  0  0  1  0  0  0  0  0  0
    2.5808   -1.6807    1.1827 C   0  0  1  0  0  0  0  0  0  0  0  0
    3.7354   -2.4787    1.1751 O   0  0  0  0  0  0  0  0  0  0  0  0
    2.2410   -1.2793   -0.2600 C   0  0  0  0  0  0  0  0  0  0  0  0
    1.0986   -0.3050   -0.3130 C   0  0  0  0  0  0  0  0  0  0  0  0
   -0.2393   -0.6070   -0.5497 C   0  0  0  0  0  0  0  0  0  0  0  0
   -0.9985    0.5085   -0.4557 N   0  0  0  0  0  0  0  0  0  0  0  0
   -0.1533    1.5090   -0.1518 C   0  0  0  0  0  0  0  0  0  0  0  0
   -0.4725    2.8489    0.0641 C   0  0  0  0  0  0  0  0  0  0  0  0
    0.5748    3.7298    0.3912 C   0  0  0  0  0  0  0  0  0  0  0  0
    1.9017    3.2564    0.4971 C   0  0  0  0  0  0  0  0  0  0  0  0
    2.1939    1.8982    0.2755 C   0  0  0  0  0  0  0  0  0  0  0  0
    1.1354    1.0505   -0.0515 C   0  0  0  0  0  0  0  0  0  0  0  0
    2.7774   -0.7546    1.7723 H   0  0  0  0  0  0  0  0  0  0  0  0
    4.0748   -2.5017    2.1082 H   0  0  0  0  0  0  0  0  0  0  0  0
    1.9912   -2.1827   -0.8588 H   0  0  0  0  0  0  0  0  0  0  0  0
    3.1324   -0.8090   -0.7284 H   0  0  0  0  0  0  0  0  0  0  0  0
   -0.6353   -1.5907   -0.7657 H   0  0  0  0  0  0  0  0  0  0  0  0
   -2.0333    0.5726   -0.5808 H   0  0  0  0  0  0  0  0  0  0  0  0
   -1.4929    3.2012   -0.0143 H   0  0  0  0  0  0  0  0  0  0  0  0
    0.3618    4.7764    0.5653 H   0  0  0  0  0  0  0  0  0  0  0  0
    2.6988    3.9427    0.7517 H   0  0  0  0  0  0  0  0  0  0  0  0
    3.2075    1.5280    0.3579 H   0  0  0  0  0  0  0  0  0  0  0  0
  1  2  2  0
  2  3  1  0
  2  4  1  0
  4  5  1  0
  4  6  1  0
  6  7  1  0
  7  8  2  0
  8  9  1  0
  9 10  1  0
 10 11  2  0
 11 12  1  0
 12 13  2  0
 13 14  1  0
 14 15  2  0
 15  7  1  0
 15 10  1  0
  4 16  1  1
  5 17  1  0
  6 18  1  0
  6 19  1  0
  8 20  1  0
  9 21  1  0
 11 22  1  0
 12 23  1  0
 13 24  1  0
 14 25  1  0
M  CHG  1   3  -1
M  END
>  <UniqueID>  (56) 
55

>  <SMILES>  (56) 
O=C([O-])[C@@H](O)Cc1c[nH]c2ccccc12

>  <Energy>  (56) 
54.973928087454084

>  <Genealogy>  (56) 
O=C([O-])C(O)Cc1c[nH]c2ccccc12 (protonated)
O=C([O-])[C@@H](O)Cc1c[nH]c2ccccc12 (chirality)
O=C([O-])[C@@H](O)Cc1c[nH]c2ccccc12 (3D coordinates assigned)
O=C([O-])[C@@H](O)Cc1c[nH]c2ccccc12 (optimized conformer: 54.973928087454084 kcal/mol)

$$$$
untitled_line_56
     RDKit          3D

 27 28  0  0  0  0  0  0  0  0999 V2000
    3.1245    0.2530   -1.2936 N   0  0  0  0  0  4  0  0  0  0  0  0
    2.9885    1.0846   -0.0898 C   0  0  1  0  0  0  0  0  0  0  0  0
    2.3558    0.2946    1.0742 C   0  0  0  0  0  0  0  0  0  0  0  0
    0.9373   -0.0962    0.7759 C   0  0  0  0  0  0  0  0  0  0  0  0
    0.4944   -1.3368    0.3263 C   0  0  0  0  0  0  0  0  0  0  0  0
   -0.8406   -1.3107    0.1094 N   0  0  0  0  0  0  0  0  0  0  0  0
   -1.2419   -0.0633    0.4103 C   0  0  0  0  0  0  0  0  0  0  0  0
   -2.5354    0.4509    0.3304 C   0  0  0  0  0  0  0  0  0  0  0  0
   -2.7300    1.7989    0.6835 C   0  0  0  0  0  0  0  0  0  0  0  0
   -1.6396    2.5941    1.1014 C   0  0  0  0  0  0  0  0  0  0  0  0
   -0.3447    2.0486    1.1710 C   0  0  0  0  0  0  0  0  0  0  0  0
   -0.1840    0.7087    0.8176 C   0  0  0  0  0  0  0  0  0  0  0  0
    4.3311    1.6206    0.3291 C   0  0  0  0  0  0  0  0  0  0  0  0
    5.2954    0.8371    0.5378 O   0  0  0  0  0  0  0  0  0  0  0  0
    4.5072    2.9868    0.5097 O   0  0  0  0  0  1  0  0  0  0  0  0
    3.6632   -0.6191   -1.0836 H   0  0  0  0  0  0  0  0  0  0  0  0
    2.1797   -0.0062   -1.6586 H   0  0  0  0  0  0  0  0  0  0  0  0
    3.6202    0.7903   -2.0422 H   0  0  0  0  0  0  0  0  0  0  0  0
    2.3336    1.9531   -0.3288 H   0  0  0  0  0  0  0  0  0  0  0  0
    2.9549   -0.6177    1.2875 H   0  0  0  0  0  0  0  0  0  0  0  0
    2.3607    0.9182    1.9949 H   0  0  0  0  0  0  0  0  0  0  0  0
    1.1170   -2.2056    0.1570 H   0  0  0  0  0  0  0  0  0  0  0  0
   -1.4335   -2.0991   -0.2333 H   0  0  0  0  0  0  0  0  0  0  0  0
   -3.3639   -0.1652    0.0056 H   0  0  0  0  0  0  0  0  0  0  0  0
   -3.7214    2.2298    0.6328 H   0  0  0  0  0  0  0  0  0  0  0  0
   -1.8010    3.6302    1.3689 H   0  0  0  0  0  0  0  0  0  0  0  0
    0.4956    2.6522    1.4885 H   0  0  0  0  0  0  0  0  0  0  0  0
  1  2  1  0
  2  3  1  0
  3  4  1  0
  4  5  2  0
  5  6  1  0
  6  7  1  0
  7  8  2  0
  8  9  1  0
  9 10  2  0
 10 11  1  0
 11 12  2  0
  2 13  1  0
 13 14  2  0
 13 15  1  0
 12  4  1  0
 12  7  1  0
  1 16  1  0
  1 17  1  0
  1 18  1  0
  2 19  1  6
  3 20  1  0
  3 21  1  0
  5 22  1  0
  6 23  1  0
  8 24  1  0
  9 25  1  0
 10 26  1  0
 11 27  1  0
M  CHG  2   1   1  15  -1
M  END
>  <UniqueID>  (57) 
56

>  <SMILES>  (57) 
[NH3+][C@@H](Cc1c[nH]c2ccccc12)C(=O)[O-]

>  <Energy>  (57) 
56.84116600877536

>  <Genealogy>  (57) 
[NH3+]C(Cc1c[nH]c2ccccc12)C(=O)[O-] (protonated)
[NH3+][C@@H](Cc1c[nH]c2ccccc12)C(=O)[O-] (chirality)
[NH3+][C@@H](Cc1c[nH]c2ccccc12)C(=O)[O-] (3D coordinates assigned)
[NH3+][C@@H](Cc1c[nH]c2ccccc12)C(=O)[O-] (optimized conformer: 56.84116600877536 kcal/mol)

$$$$
untitled_line_57
     RDKit          3D

 30 31  0  0  0  0  0  0  0  0999 V2000
   -3.6381   -1.3110    0.0165 C   0  0  0  0  0  0  0  0  0  0  0  0
   -2.4713   -0.6280    0.5879 N   0  0  0  0  0  4  0  0  0  0  0  0
   -1.9970    0.4746   -0.2788 C   0  0  1  0  0  0  0  0  0  0  0  0
   -1.0098    1.3984    0.4707 C   0  0  0  0  0  0  0  0  0  0  0  0
    0.2287    0.6890    0.9471 C   0  0  0  0  0  0  0  0  0  0  0  0
    0.3774   -0.0036    2.1455 C   0  0  0  0  0  0  0  0  0  0  0  0
    1.6132   -0.5469    2.2275 N   0  0  0  0  0  0  0  0  0  0  0  0
    2.2454   -0.2055    1.0913 C   0  0  0  0  0  0  0  0  0  0  0  0
    3.5451   -0.5414    0.7148 C   0  0  0  0  0  0  0  0  0  0  0  0
    4.0090   -0.0801   -0.5306 C   0  0  0  0  0  0  0  0  0  0  0  0
    3.1731    0.6976   -1.3622 C   0  0  0  0  0  0  0  0  0  0  0  0
    1.8658    1.0214   -0.9564 C   0  0  0  0  0  0  0  0  0  0  0  0
    1.4330    0.5490    0.2835 C   0  0  0  0  0  0  0  0  0  0  0  0
   -1.3811   -0.0385   -1.5600 C   0  0  0  0  0  0  0  0  0  0  0  0
   -1.5351    0.6044   -2.6316 O   0  0  0  0  0  0  0  0  0  0  0  0
   -0.6013   -1.1895   -1.5618 O   0  0  0  0  0  1  0  0  0  0  0  0
   -4.4773   -0.5971   -0.1339 H   0  0  0  0  0  0  0  0  0  0  0  0
   -3.3818   -1.7901   -0.9529 H   0  0  0  0  0  0  0  0  0  0  0  0
   -3.9824   -2.1070    0.7117 H   0  0  0  0  0  0  0  0  0  0  0  0
   -1.7126   -1.3315    0.7454 H   0  0  0  0  0  0  0  0  0  0  0  0
   -2.7568   -0.2411    1.5180 H   0  0  0  0  0  0  0  0  0  0  0  0
   -2.8675    1.1148   -0.5530 H   0  0  0  0  0  0  0  0  0  0  0  0
   -1.5243    1.8464    1.3483 H   0  0  0  0  0  0  0  0  0  0  0  0
   -0.7202    2.2448   -0.1891 H   0  0  0  0  0  0  0  0  0  0  0  0
   -0.3803   -0.1096    2.9109 H   0  0  0  0  0  0  0  0  0  0  0  0
    1.9932   -1.1195    3.0136 H   0  0  0  0  0  0  0  0  0  0  0  0
    4.1778   -1.1388    1.3585 H   0  0  0  0  0  0  0  0  0  0  0  0
    5.0129   -0.3232   -0.8536 H   0  0  0  0  0  0  0  0  0  0  0  0
    3.5406    1.0465   -2.3184 H   0  0  0  0  0  0  0  0  0  0  0  0
    1.2214    1.6157   -1.5905 H   0  0  0  0  0  0  0  0  0  0  0  0
  1  2  1  0
  2  3  1  0
  3  4  1  0
  4  5  1  0
  5  6  2  0
  6  7  1  0
  7  8  1  0
  8  9  2  0
  9 10  1  0
 10 11  2  0
 11 12  1  0
 12 13  2  0
  3 14  1  0
 14 15  2  0
 14 16  1  0
 13  5  1  0
 13  8  1  0
  1 17  1  0
  1 18  1  0
  1 19  1  0
  2 20  1  0
  2 21  1  0
  3 22  1  6
  4 23  1  0
  4 24  1  0
  6 25  1  0
  7 26  1  0
  9 27  1  0
 10 28  1  0
 11 29  1  0
 12 30  1  0
M  CHG  2   2   1  16  -1
M  END
>  <UniqueID>  (58) 
57

>  <SMILES>  (58) 
C[NH2+][C@@H](Cc1c[nH]c2ccccc12)C(=O)[O-]

>  <Energy>  (58) 
61.07580790322158

>  <Genealogy>  (58) 
C[NH2+]C(Cc1c[nH]c2ccccc12)C(=O)[O-] (protonated)
C[NH2+][C@@H](Cc1c[nH]c2ccccc12)C(=O)[O-] (chirality)
C[NH2+][C@@H](Cc1c[nH]c2ccccc12)C(=O)[O-] (3D coordinates assigned)
C[NH2+][C@@H](Cc1c[nH]c2ccccc12)C(=O)[O-] (optimized conformer: 61.07580790322158 kcal/mol)

$$$$
untitled_line_58
     RDKit          3D

 56 62  0  0  0  0  0  0  0  0999 V2000
    0.7890   -3.5321   -2.7840 O   0  0  0  0  0  0  0  0  0  0  0  0
    1.4584   -2.5299   -3.1501 C   0  0  0  0  0  0  0  0  0  0  0  0
    2.6189   -2.7166   -3.8916 O   0  0  0  0  0  1  0  0  0  0  0  0
    1.0039   -1.1380   -2.8088 C   0  0  1  0  0  0  0  0  0  0  0  0
   -0.3147   -0.8000   -3.5277 C   0  0  0  0  0  0  0  0  0  0  0  0
   -0.7762    0.5997   -3.2297 C   0  0  0  0  0  0  0  0  0  0  0  0
   -0.0746    1.7738   -3.4927 C   0  0  0  0  0  0  0  0  0  0  0  0
   -0.8395    2.8545   -3.2194 N   0  0  0  0  0  0  0  0  0  0  0  0
   -2.0222    2.3755   -2.7989 C   0  0  0  0  0  0  0  0  0  0  0  0
   -3.1503    3.1126   -2.4413 C   0  0  0  0  0  0  0  0  0  0  0  0
   -4.2982    2.4054   -2.0399 C   0  0  0  0  0  0  0  0  0  0  0  0
   -4.2955    0.9938   -2.0136 C   0  0  0  0  0  0  0  0  0  0  0  0
   -3.1482    0.2753   -2.3963 C   0  0  0  0  0  0  0  0  0  0  0  0
   -2.0218    1.0033   -2.7846 C   0  0  0  0  0  0  0  0  0  0  0  0
    0.9045   -0.9746   -1.3493 N   0  0  0  0  0  0  0  0  0  0  0  0
    1.9723   -0.5190   -0.5268 C   0  0  0  0  0  0  0  0  0  0  0  0
    2.9968    0.0537   -0.9867 O   0  0  0  0  0  0  0  0  0  0  0  0
    1.7771   -0.8141    0.9272 C   0  0  1  0  0  0  0  0  0  0  0  0
    1.7195    0.4731    1.8136 C   0  0  0  0  0  0  0  0  0  0  0  0
    1.3133   -0.0220    3.1948 C   0  0  0  0  0  0  0  0  0  0  0  0
    2.0669    0.1364    4.3603 C   0  0  0  0  0  0  0  0  0  0  0  0
    1.5762   -0.3830    5.5663 C   0  0  0  0  0  0  0  0  0  0  0  0
    0.3442   -1.0573    5.6027 C   0  0  0  0  0  0  0  0  0  0  0  0
   -0.4116   -1.2206    4.4335 C   0  0  0  0  0  0  0  0  0  0  0  0
    0.0743   -0.7010    3.2313 C   0  0  0  0  0  0  0  0  0  0  0  0
   -0.6240   -0.8089    1.8835 C   0  0  0  0  0  0  0  0  0  0  0  0
   -0.7036    0.6228    1.3719 C   0  0  0  0  0  0  0  0  0  0  0  0
   -1.8825    1.2860    1.0239 C   0  0  0  0  0  0  0  0  0  0  0  0
   -1.8182    2.6284    0.6283 C   0  0  0  0  0  0  0  0  0  0  0  0
   -0.5827    3.2918    0.5565 C   0  0  0  0  0  0  0  0  0  0  0  0
    0.5998    2.6284    0.9100 C   0  0  0  0  0  0  0  0  0  0  0  0
    0.5338    1.2973    1.3291 C   0  0  0  0  0  0  0  0  0  0  0  0
    0.3893   -1.5715    0.9653 C   0  0  0  0  0  0  0  0  0  0  0  0
   -0.0255   -1.6092   -0.4733 C   0  0  0  0  0  0  0  0  0  0  0  0
   -1.0751   -2.1791   -0.8721 O   0  0  0  0  0  0  0  0  0  0  0  0
    1.7739   -0.4339   -3.1952 H   0  0  0  0  0  0  0  0  0  0  0  0
   -1.1024   -1.5339   -3.2666 H   0  0  0  0  0  0  0  0  0  0  0  0
   -0.1587   -0.8805   -4.6253 H   0  0  0  0  0  0  0  0  0  0  0  0
    0.9303    1.8337   -3.8907 H   0  0  0  0  0  0  0  0  0  0  0  0
   -0.5710    3.8567   -3.3381 H   0  0  0  0  0  0  0  0  0  0  0  0
   -3.1421    4.1946   -2.4636 H   0  0  0  0  0  0  0  0  0  0  0  0
   -5.1882    2.9473   -1.7474 H   0  0  0  0  0  0  0  0  0  0  0  0
   -5.1835    0.4603   -1.7005 H   0  0  0  0  0  0  0  0  0  0  0  0
   -3.1491   -0.8059   -2.3831 H   0  0  0  0  0  0  0  0  0  0  0  0
    2.5930   -1.4852    1.2766 H   0  0  0  0  0  0  0  0  0  0  0  0
    2.6769    1.0385    1.8154 H   0  0  0  0  0  0  0  0  0  0  0  0
    3.0186    0.6516    4.3357 H   0  0  0  0  0  0  0  0  0  0  0  0
    2.1516   -0.2655    6.4754 H   0  0  0  0  0  0  0  0  0  0  0  0
   -0.0231   -1.4555    6.5398 H   0  0  0  0  0  0  0  0  0  0  0  0
   -1.3586   -1.7440    4.4648 H   0  0  0  0  0  0  0  0  0  0  0  0
   -1.6144   -1.3107    1.9421 H   0  0  0  0  0  0  0  0  0  0  0  0
   -2.8368    0.7777    1.0736 H   0  0  0  0  0  0  0  0  0  0  0  0
   -2.7274    3.1590    0.3805 H   0  0  0  0  0  0  0  0  0  0  0  0
   -0.5455    4.3262    0.2400 H   0  0  0  0  0  0  0  0  0  0  0  0
    1.5483    3.1483    0.8737 H   0  0  0  0  0  0  0  0  0  0  0  0
    0.5290   -2.6129    1.3314 H   0  0  0  0  0  0  0  0  0  0  0  0
  1  2  2  0
  2  3  1  0
  2  4  1  0
  4  5  1  0
  5  6  1  0
  6  7  2  0
  7  8  1  0
  8  9  1  0
  9 10  2  0
 10 11  1  0
 11 12  2  0
 12 13  1  0
 13 14  2  0
  4 15  1  0
 15 16  1  0
 16 17  2  0
 16 18  1  0
 18 19  1  0
 19 20  1  0
 20 21  2  0
 21 22  1  0
 22 23  2  0
 23 24  1  0
 24 25  2  0
 25 26  1  0
 26 27  1  0
 27 28  2  0
 28 29  1  0
 29 30  2  0
 30 31  1  0
 31 32  2  0
 26 33  1  0
 33 34  1  0
 34 35  2  0
 14  6  1  0
 34 15  1  0
 14  9  1  0
 33 18  1  0
 32 19  1  0
 25 20  1  0
 32 27  1  0
  4 36  1  6
  5 37  1  0
  5 38  1  0
  7 39  1  0
  8 40  1  0
 10 41  1  0
 11 42  1  0
 12 43  1  0
 13 44  1  0
 18 45  1  1
 19 46  1  0
 21 47  1  0
 22 48  1  0
 23 49  1  0
 24 50  1  0
 26 51  1  0
 28 52  1  0
 29 53  1  0
 30 54  1  0
 31 55  1  0
 33 56  1  0
M  CHG  1   3  -1
M  END
>  <UniqueID>  (59) 
58

>  <SMILES>  (59) 
O=C([O-])[C@@H](Cc1c[nH]c2ccccc12)N1C(=O)C2C3c4ccccc4C(c4ccccc43)[C@@H]2C1=O

>  <Energy>  (59) 
133.72994341559013

>  <Genealogy>  (59) 
O=C([O-])C(Cc1c[nH]c2ccccc12)N1C(=O)C2C3c4ccccc4C(c4ccccc43)C2C1=O (protonated)
O=C([O-])[C@@H](Cc1c[nH]c2ccccc12)N1C(=O)C2C3c4ccccc4C(c4ccccc43)[C@@H]2C1=O (chirality)
O=C([O-])[C@@H](Cc1c[nH]c2ccccc12)N1C(=O)C2C3c4ccccc4C(c4ccccc43)[C@@H]2C1=O (3D coordinates assigned)
O=C([O-])[C@@H](Cc1c[nH]c2ccccc12)N1C(=O)C2C3c4ccccc4C(c4ccccc43)[C@@H]2C1=O (nonaromatic ring conformer: 133.72994341559013 kcal/mol)

$$$$
untitled_line_59
     RDKit          3D

 39 41  0  0  0  0  0  0  0  0999 V2000
   -0.8171   -2.0355   -1.5438 O   0  0  0  0  0  0  0  0  0  0  0  0
   -0.6029   -0.7943   -1.5118 C   0  0  0  0  0  0  0  0  0  0  0  0
   -0.5572   -0.0815   -2.7033 O   0  0  0  0  0  1  0  0  0  0  0  0
   -0.4173   -0.0691   -0.1971 C   0  0  2  0  0  0  0  0  0  0  0  0
    0.4460   -0.8768    0.7991 C   0  0  0  0  0  0  0  0  0  0  0  0
    1.8678   -0.9970    0.3279 C   0  0  0  0  0  0  0  0  0  0  0  0
    2.4268   -2.0686   -0.3622 C   0  0  0  0  0  0  0  0  0  0  0  0
    3.7136   -1.8031   -0.6838 N   0  0  0  0  0  0  0  0  0  0  0  0
    3.9679   -0.5701   -0.2120 C   0  0  0  0  0  0  0  0  0  0  0  0
    5.1597    0.1458   -0.3165 C   0  0  0  0  0  0  0  0  0  0  0  0
    5.2009    1.4385    0.2376 C   0  0  0  0  0  0  0  0  0  0  0  0
    4.0621    1.9815    0.8734 C   0  0  0  0  0  0  0  0  0  0  0  0
    2.8721    1.2365    0.9625 C   0  0  0  0  0  0  0  0  0  0  0  0
    2.8637   -0.0436    0.4079 C   0  0  0  0  0  0  0  0  0  0  0  0
   -1.7115    0.3446    0.4098 N   0  0  0  0  0  0  0  0  0  0  0  0
   -2.5606   -0.7845    0.8799 C   0  0  0  0  0  0  0  0  0  0  0  0
   -3.9455   -0.3295    1.3459 C   0  0  0  0  0  0  0  0  0  0  0  0
   -4.8395    0.3055   -0.0523 S   0  0  0  0  0  6  0  0  0  0  0  0
   -5.6295   -0.7900   -0.7110 O   0  0  0  0  0  0  0  0  0  0  0  0
   -5.7621    1.4098    0.3810 O   0  0  0  0  0  0  0  0  0  0  0  0
   -3.6080    0.9294   -1.1715 C   0  0  0  0  0  0  0  0  0  0  0  0
   -2.4006    1.4185   -0.3624 C   0  0  0  0  0  0  0  0  0  0  0  0
    0.1654    0.8552   -0.4138 H   0  0  0  0  0  0  0  0  0  0  0  0
    0.0290   -1.8959    0.9488 H   0  0  0  0  0  0  0  0  0  0  0  0
    0.4418   -0.3671    1.7867 H   0  0  0  0  0  0  0  0  0  0  0  0
    1.9164   -2.9864   -0.6234 H   0  0  0  0  0  0  0  0  0  0  0  0
    4.3692   -2.4271   -1.2048 H   0  0  0  0  0  0  0  0  0  0  0  0
    6.0253   -0.2766   -0.8100 H   0  0  0  0  0  0  0  0  0  0  0  0
    6.1103    2.0216    0.1738 H   0  0  0  0  0  0  0  0  0  0  0  0
    4.1046    2.9779    1.2936 H   0  0  0  0  0  0  0  0  0  0  0  0
    1.9948    1.6474    1.4450 H   0  0  0  0  0  0  0  0  0  0  0  0
   -2.0720   -1.2733    1.7486 H   0  0  0  0  0  0  0  0  0  0  0  0
   -2.6865   -1.5501    0.0855 H   0  0  0  0  0  0  0  0  0  0  0  0
   -4.5021   -1.1864    1.7810 H   0  0  0  0  0  0  0  0  0  0  0  0
   -3.8427    0.4624    2.1181 H   0  0  0  0  0  0  0  0  0  0  0  0
   -4.0367    1.7693   -1.7579 H   0  0  0  0  0  0  0  0  0  0  0  0
   -3.2994    0.1268   -1.8732 H   0  0  0  0  0  0  0  0  0  0  0  0
   -2.7424    2.1977    0.3526 H   0  0  0  0  0  0  0  0  0  0  0  0
   -1.7036    1.9381   -1.0561 H   0  0  0  0  0  0  0  0  0  0  0  0
  1  2  2  0
  2  3  1  0
  2  4  1  0
  4  5  1  0
  5  6  1  0
  6  7  2  0
  7  8  1  0
  8  9  1  0
  9 10  2  0
 10 11  1  0
 11 12  2  0
 12 13  1  0
 13 14  2  0
  4 15  1  0
 15 16  1  0
 16 17  1  0
 17 18  1  0
 18 19  2  0
 18 20  2  0
 18 21  1  0
 21 22  1  0
 14  6  1  0
 22 15  1  0
 14  9  1  0
  4 23  1  6
  5 24  1  0
  5 25  1  0
  7 26  1  0
  8 27  1  0
 10 28  1  0
 11 29  1  0
 12 30  1  0
 13 31  1  0
 16 32  1  0
 16 33  1  0
 17 34  1  0
 17 35  1  0
 21 36  1  0
 21 37  1  0
 22 38  1  0
 22 39  1  0
M  CHG  1   3  -1
M  END
>  <UniqueID>  (60) 
59

>  <SMILES>  (60) 
O=C([O-])[C@H](Cc1c[nH]c2ccccc12)N1CCS(=O)(=O)CC1

>  <Energy>  (60) 
77.99577259281762

>  <Genealogy>  (60) 
O=C([O-])C(Cc1c[nH]c2ccccc12)N1CCS(=O)(=O)CC1 (protonated)
O=C([O-])[C@H](Cc1c[nH]c2ccccc12)N1CCS(=O)(=O)CC1 (chirality)
O=C([O-])[C@H](Cc1c[nH]c2ccccc12)N1CCS(=O)(=O)CC1 (3D coordinates assigned)
O=C([O-])[C@H](Cc1c[nH]c2ccccc12)N1CCS(=O)(=O)CC1 (nonaromatic ring conformer: 77.99577259281762 kcal/mol)

$$$$
untitled_line_60
     RDKit          3D

 40 43  0  0  0  0  0  0  0  0999 V2000
   -4.1695    1.7965   -5.7344 O   0  0  0  0  0  0  0  0  0  0  0  0
   -3.1784    2.5690   -5.8250 C   0  0  0  0  0  0  0  0  0  0  0  0
   -3.2047    3.5914   -6.7666 O   0  0  0  0  0  1  0  0  0  0  0  0
   -2.0040    2.3919   -4.9437 C   0  0  0  0  0  0  0  0  0  0  0  0
   -0.8922    3.2680   -5.0523 C   0  0  0  0  0  0  0  0  0  0  0  0
    0.2302    3.1140   -4.2199 C   0  0  0  0  0  0  0  0  0  0  0  0
    0.2212    2.0769   -3.2922 C   0  0  0  0  0  0  0  0  0  0  0  0
   -0.8506    1.2222   -3.1781 C   0  0  0  0  0  0  0  0  0  0  0  0
   -1.9789    1.3519   -3.9848 C   0  0  0  0  0  0  0  0  0  0  0  0
   -0.5489    0.2760   -2.1105 C   0  0  0  0  0  0  0  0  0  0  0  0
   -1.3228   -0.6267   -1.6945 O   0  0  0  0  0  0  0  0  0  0  0  0
    0.7522    0.5332   -1.5717 N   0  0  0  0  0  0  0  0  0  0  0  0
    1.2709    0.0117   -0.3035 C   0  0  2  0  0  0  0  0  0  0  0  0
    1.0369    1.0331    0.8263 C   0  0  0  0  0  0  0  0  0  0  0  0
    1.3490    0.4480    2.1735 C   0  0  0  0  0  0  0  0  0  0  0  0
    2.5232    0.6151    2.9017 C   0  0  0  0  0  0  0  0  0  0  0  0
    2.4769   -0.1084    4.0438 N   0  0  0  0  0  0  0  0  0  0  0  0
    1.2884   -0.7370    4.0378 C   0  0  0  0  0  0  0  0  0  0  0  0
    0.7897   -1.6117    5.0022 C   0  0  0  0  0  0  0  0  0  0  0  0
   -0.4822   -2.1732    4.7857 C   0  0  0  0  0  0  0  0  0  0  0  0
   -1.2175   -1.8534    3.6225 C   0  0  0  0  0  0  0  0  0  0  0  0
   -0.6883   -0.9684    2.6655 C   0  0  0  0  0  0  0  0  0  0  0  0
    0.5732   -0.4253    2.9100 C   0  0  0  0  0  0  0  0  0  0  0  0
    2.7189   -0.3755   -0.4546 C   0  0  0  0  0  0  0  0  0  0  0  0
    3.6381    0.4692   -0.2847 O   0  0  0  0  0  0  0  0  0  0  0  0
    3.0462   -1.6703   -0.8365 O   0  0  0  0  0  1  0  0  0  0  0  0
    1.2116    1.6810   -2.2981 C   0  0  0  0  0  0  0  0  0  0  0  0
    2.3007    2.2742   -2.0792 O   0  0  0  0  0  0  0  0  0  0  0  0
   -0.8928    4.0714   -5.7779 H   0  0  0  0  0  0  0  0  0  0  0  0
    1.0763    3.7843   -4.2983 H   0  0  0  0  0  0  0  0  0  0  0  0
   -2.8091    0.6667   -3.8683 H   0  0  0  0  0  0  0  0  0  0  0  0
    0.7099   -0.9153   -0.0508 H   0  0  0  0  0  0  0  0  0  0  0  0
    1.6513    1.9445    0.6610 H   0  0  0  0  0  0  0  0  0  0  0  0
   -0.0283    1.3504    0.8175 H   0  0  0  0  0  0  0  0  0  0  0  0
    3.3675    1.2246    2.6069 H   0  0  0  0  0  0  0  0  0  0  0  0
    3.2208   -0.1721    4.7738 H   0  0  0  0  0  0  0  0  0  0  0  0
    1.3623   -1.8540    5.8881 H   0  0  0  0  0  0  0  0  0  0  0  0
   -0.8990   -2.8562    5.5144 H   0  0  0  0  0  0  0  0  0  0  0  0
   -2.1939   -2.2930    3.4656 H   0  0  0  0  0  0  0  0  0  0  0  0
   -1.2447   -0.7208    1.7707 H   0  0  0  0  0  0  0  0  0  0  0  0
  1  2  2  0
  2  3  1  0
  2  4  1  0
  4  5  2  0
  5  6  1  0
  6  7  2  0
  7  8  1  0
  8  9  2  0
  8 10  1  0
 10 11  2  0
 10 12  1  0
 12 13  1  0
 13 14  1  0
 14 15  1  0
 15 16  2  0
 16 17  1  0
 17 18  1  0
 18 19  2  0
 19 20  1  0
 20 21  2  0
 21 22  1  0
 22 23  2  0
 13 24  1  0
 24 25  2  0
 24 26  1  0
 12 27  1  0
 27 28  2  0
  9  4  1  0
 23 15  1  0
 27  7  1  0
 23 18  1  0
  5 29  1  0
  6 30  1  0
  9 31  1  0
 13 32  1  1
 14 33  1  0
 14 34  1  0
 16 35  1  0
 17 36  1  0
 19 37  1  0
 20 38  1  0
 21 39  1  0
 22 40  1  0
M  CHG  2   3  -1  26  -1
M  END
>  <UniqueID>  (61) 
60

>  <SMILES>  (61) 
O=C([O-])c1ccc2c(c1)C(=O)N([C@H](Cc1c[nH]c3ccccc13)C(=O)[O-])C2=O

>  <Energy>  (61) 
107.77197485762778

>  <Genealogy>  (61) 
O=C([O-])c1ccc2c(c1)C(=O)N([C@H](Cc1c[nH]c3ccccc13)C(=O)[O-])C2=O (protonated)
O=C([O-])c1ccc2c(c1)C(=O)N([C@H](Cc1c[nH]c3ccccc13)C(=O)[O-])C2=O (3D coordinates assigned)
O=C([O-])c1ccc2c(c1)C(=O)N([C@H](Cc1c[nH]c3ccccc13)C(=O)[O-])C2=O (nonaromatic ring conformer: 107.77197485762778 kcal/mol)

$$$$
untitled_line_61
     RDKit          3D

 39 42  0  0  0  0  0  0  0  0999 V2000
   -0.0678    4.3132    2.1052 O   0  0  0  0  0  0  0  0  0  0  0  0
   -0.3701    3.8624    0.9691 C   0  0  0  0  0  0  0  0  0  0  0  0
   -1.3068    4.5370    0.1943 O   0  0  0  0  0  1  0  0  0  0  0  0
    0.2400    2.5765    0.4842 C   0  0  2  0  0  0  0  0  0  0  0  0
    0.6740    2.6926   -0.9897 C   0  0  0  0  0  0  0  0  0  0  0  0
    1.2992    1.4185   -1.4795 C   0  0  0  0  0  0  0  0  0  0  0  0
    0.6661    0.4096   -2.2004 C   0  0  0  0  0  0  0  0  0  0  0  0
    1.5007   -0.6400   -2.3761 N   0  0  0  0  0  0  0  0  0  0  0  0
    2.6500   -0.3073   -1.7632 C   0  0  0  0  0  0  0  0  0  0  0  0
    3.8016   -1.0846   -1.6479 C   0  0  0  0  0  0  0  0  0  0  0  0
    4.8875   -0.5488   -0.9314 C   0  0  0  0  0  0  0  0  0  0  0  0
    4.7971    0.7350   -0.3487 C   0  0  0  0  0  0  0  0  0  0  0  0
    3.6208    1.4955   -0.4785 C   0  0  0  0  0  0  0  0  0  0  0  0
    2.5642    0.9404   -1.2004 C   0  0  0  0  0  0  0  0  0  0  0  0
   -0.7041    1.4679    0.6737 N   0  0  0  0  0  0  0  0  0  0  0  0
   -2.0836    1.4198    0.1640 C   0  0  0  0  0  0  0  0  0  0  0  0
   -2.4782   -0.0159    0.3570 C   0  0  0  0  0  0  0  0  0  0  0  0
   -3.6919   -0.6263    0.0374 C   0  0  0  0  0  0  0  0  0  0  0  0
   -3.8374   -2.0022    0.2882 C   0  0  0  0  0  0  0  0  0  0  0  0
   -2.7746   -2.7419    0.8466 C   0  0  0  0  0  0  0  0  0  0  0  0
   -1.5589   -2.1111    1.1590 C   0  0  0  0  0  0  0  0  0  0  0  0
   -1.4462   -0.7457    0.9035 C   0  0  0  0  0  0  0  0  0  0  0  0
   -0.3408    0.1550    1.0995 C   0  0  0  0  0  0  0  0  0  0  0  0
    0.7912   -0.1601    1.5539 O   0  0  0  0  0  0  0  0  0  0  0  0
    1.1511    2.3862    1.0948 H   0  0  0  0  0  0  0  0  0  0  0  0
    1.4123    3.5169   -1.0945 H   0  0  0  0  0  0  0  0  0  0  0  0
   -0.1961    2.9429   -1.6340 H   0  0  0  0  0  0  0  0  0  0  0  0
   -0.3565    0.4331   -2.5537 H   0  0  0  0  0  0  0  0  0  0  0  0
    1.2840   -1.5349   -2.8686 H   0  0  0  0  0  0  0  0  0  0  0  0
    3.8583   -2.0706   -2.0906 H   0  0  0  0  0  0  0  0  0  0  0  0
    5.7965   -1.1258   -0.8226 H   0  0  0  0  0  0  0  0  0  0  0  0
    5.6373    1.1353    0.2035 H   0  0  0  0  0  0  0  0  0  0  0  0
    3.5425    2.4774   -0.0303 H   0  0  0  0  0  0  0  0  0  0  0  0
   -2.1158    1.6806   -0.9144 H   0  0  0  0  0  0  0  0  0  0  0  0
   -2.7404    2.0892    0.7584 H   0  0  0  0  0  0  0  0  0  0  0  0
   -4.5020   -0.0547   -0.3963 H   0  0  0  0  0  0  0  0  0  0  0  0
   -4.7697   -2.4967    0.0485 H   0  0  0  0  0  0  0  0  0  0  0  0
   -2.8950   -3.8010    1.0335 H   0  0  0  0  0  0  0  0  0  0  0  0
   -0.7352   -2.6702    1.5835 H   0  0  0  0  0  0  0  0  0  0  0  0
  1  2  2  0
  2  3  1  0
  2  4  1  0
  4  5  1  0
  5  6  1  0
  6  7  2  0
  7  8  1  0
  8  9  1  0
  9 10  2  0
 10 11  1  0
 11 12  2  0
 12 13  1  0
 13 14  2  0
  4 15  1  0
 15 16  1  0
 16 17  1  0
 17 18  2  0
 18 19  1  0
 19 20  2  0
 20 21  1  0
 21 22  2  0
 22 23  1  0
 23 24  2  0
 14  6  1  0
 23 15  1  0
 14  9  1  0
 22 17  1  0
  4 25  1  1
  5 26  1  0
  5 27  1  0
  7 28  1  0
  8 29  1  0
 10 30  1  0
 11 31  1  0
 12 32  1  0
 13 33  1  0
 16 34  1  0
 16 35  1  0
 18 36  1  0
 19 37  1  0
 20 38  1  0
 21 39  1  0
M  CHG  1   3  -1
M  END
>  <UniqueID>  (62) 
61

>  <SMILES>  (62) 
O=C([O-])[C@H](Cc1c[nH]c2ccccc12)N1Cc2ccccc2C1=O

>  <Energy>  (62) 
92.49278282256462

>  <Genealogy>  (62) 
O=C([O-])C(Cc1c[nH]c2ccccc12)N1Cc2ccccc2C1=O (protonated)
O=C([O-])[C@H](Cc1c[nH]c2ccccc12)N1Cc2ccccc2C1=O (chirality)
O=C([O-])[C@H](Cc1c[nH]c2ccccc12)N1Cc2ccccc2C1=O (3D coordinates assigned)
O=C([O-])[C@H](Cc1c[nH]c2ccccc12)N1Cc2ccccc2C1=O (nonaromatic ring conformer: 92.49278282256462 kcal/mol)

$$$$
untitled_line_62
     RDKit          3D

 30 31  0  0  0  0  0  0  0  0999 V2000
    3.9238    0.5485    1.4816 C   0  0  0  0  0  0  0  0  0  0  0  0
    3.1199   -0.4004    0.6589 C   0  0  0  0  0  0  0  0  0  0  0  0
    3.2326   -1.6421    0.8451 O   0  0  0  0  0  0  0  0  0  0  0  0
    2.1851    0.1087   -0.2971 N   0  0  0  0  0  2  0  0  0  0  0  0
    1.3427   -0.7421   -1.1356 C   0  0  1  0  0  0  0  0  0  0  0  0
    0.2649    0.1063   -1.8243 C   0  0  0  0  0  0  0  0  0  0  0  0
   -0.6612    0.7263   -0.8184 C   0  0  0  0  0  0  0  0  0  0  0  0
   -0.5676    2.0078   -0.2834 C   0  0  0  0  0  0  0  0  0  0  0  0
   -1.5266    2.2001    0.6510 N   0  0  0  0  0  0  0  0  0  0  0  0
   -2.2162    1.0479    0.7186 C   0  0  0  0  0  0  0  0  0  0  0  0
   -3.2915    0.7542    1.5561 C   0  0  0  0  0  0  0  0  0  0  0  0
   -3.8552   -0.5324    1.4757 C   0  0  0  0  0  0  0  0  0  0  0  0
   -3.3351   -1.4868    0.5732 C   0  0  0  0  0  0  0  0  0  0  0  0
   -2.2476   -1.1630   -0.2585 C   0  0  0  0  0  0  0  0  0  0  0  0
   -1.7139    0.1221   -0.1598 C   0  0  0  0  0  0  0  0  0  0  0  0
    2.1816   -1.4425   -2.1653 C   0  0  0  0  0  0  0  0  0  0  0  0
    3.0086   -0.7963   -2.8622 O   0  0  0  0  0  0  0  0  0  0  0  0
    2.0238   -2.8063   -2.3773 O   0  0  0  0  0  1  0  0  0  0  0  0
    4.8954    0.0876    1.7590 H   0  0  0  0  0  0  0  0  0  0  0  0
    4.1207    1.4774    0.9061 H   0  0  0  0  0  0  0  0  0  0  0  0
    3.3628    0.8035    2.4045 H   0  0  0  0  0  0  0  0  0  0  0  0
    0.8445   -1.5053   -0.4967 H   0  0  0  0  0  0  0  0  0  0  0  0
    0.7411    0.9080   -2.4309 H   0  0  0  0  0  0  0  0  0  0  0  0
   -0.3309   -0.5301   -2.5146 H   0  0  0  0  0  0  0  0  0  0  0  0
    0.1700    2.7522   -0.5539 H   0  0  0  0  0  0  0  0  0  0  0  0
   -1.6856    3.0647    1.2147 H   0  0  0  0  0  0  0  0  0  0  0  0
   -3.6792    1.4901    2.2487 H   0  0  0  0  0  0  0  0  0  0  0  0
   -4.6909   -0.7935    2.1118 H   0  0  0  0  0  0  0  0  0  0  0  0
   -3.7748   -2.4744    0.5223 H   0  0  0  0  0  0  0  0  0  0  0  0
   -1.8413   -1.8903   -0.9493 H   0  0  0  0  0  0  0  0  0  0  0  0
  1  2  1  0
  2  3  2  0
  2  4  1  0
  4  5  1  0
  5  6  1  0
  6  7  1  0
  7  8  2  0
  8  9  1  0
  9 10  1  0
 10 11  2  0
 11 12  1  0
 12 13  2  0
 13 14  1  0
 14 15  2  0
  5 16  1  0
 16 17  2  0
 16 18  1  0
 15  7  1  0
 15 10  1  0
  1 19  1  0
  1 20  1  0
  1 21  1  0
  5 22  1  1
  6 23  1  0
  6 24  1  0
  8 25  1  0
  9 26  1  0
 11 27  1  0
 12 28  1  0
 13 29  1  0
 14 30  1  0
M  CHG  2   4  -1  18  -1
M  END
>  <UniqueID>  (63) 
62

>  <SMILES>  (63) 
CC(=O)[N-][C@@H](Cc1c[nH]c2ccccc12)C(=O)[O-]

>  <Energy>  (63) 
56.055530495565144

>  <Genealogy>  (63) 
CC(=O)[N-]C(Cc1c[nH]c2ccccc12)C(=O)[O-] (protonated)
CC(=O)[N-][C@@H](Cc1c[nH]c2ccccc12)C(=O)[O-] (chirality)
CC(=O)[N-][C@@H](Cc1c[nH]c2ccccc12)C(=O)[O-] (3D coordinates assigned)
CC(=O)[N-][C@@H](Cc1c[nH]c2ccccc12)C(=O)[O-] (optimized conformer: 56.055530495565144 kcal/mol)

$$$$
untitled_line_63
     RDKit          3D

 50 53  0  0  0  0  0  0  0  0999 V2000
   -2.2714   -0.8763   -1.9782 N   0  0  0  0  0  0  0  0  0  0  0  0
   -1.9401    0.2782   -1.1393 C   0  0  1  0  0  0  0  0  0  0  0  0
   -2.3885    0.0425    0.3149 C   0  0  0  0  0  0  0  0  0  0  0  0
   -3.8846    0.0206    0.4388 C   0  0  0  0  0  0  0  0  0  0  0  0
   -4.6961   -1.1076    0.5148 C   0  0  0  0  0  0  0  0  0  0  0  0
   -5.9994   -0.7487    0.5637 N   0  0  0  0  0  0  0  0  0  0  0  0
   -6.0173    0.5947    0.5114 C   0  0  0  0  0  0  0  0  0  0  0  0
   -7.1365    1.4262    0.5198 C   0  0  0  0  0  0  0  0  0  0  0  0
   -6.9242    2.8151    0.4432 C   0  0  0  0  0  0  0  0  0  0  0  0
   -5.6134    3.3354    0.3587 C   0  0  0  0  0  0  0  0  0  0  0  0
   -4.5028    2.4720    0.3509 C   0  0  0  0  0  0  0  0  0  0  0  0
   -4.7451    1.1005    0.4310 C   0  0  0  0  0  0  0  0  0  0  0  0
   -0.4544    0.5244   -1.1741 C   0  0  0  0  0  0  0  0  0  0  0  0
   -0.0256    1.6843   -1.4219 O   0  0  0  0  0  0  0  0  0  0  0  0
    0.4669   -0.5432   -0.9020 N   0  0  0  0  0  0  0  0  0  0  0  0
    1.9189   -0.3439   -0.9266 C   0  0  1  0  0  0  0  0  0  0  0  0
    2.6308   -1.5207   -0.2340 C   0  0  0  0  0  0  0  0  0  0  0  0
    4.1053   -1.2712   -0.0926 C   0  0  0  0  0  0  0  0  0  0  0  0
    5.1105   -1.7360   -0.9355 C   0  0  0  0  0  0  0  0  0  0  0  0
    6.3134   -1.2567   -0.5441 N   0  0  0  0  0  0  0  0  0  0  0  0
    6.0743   -0.4855    0.5310 C   0  0  0  0  0  0  0  0  0  0  0  0
    7.0043    0.2396    1.2747 C   0  0  0  0  0  0  0  0  0  0  0  0
    6.5294    1.0014    2.3582 C   0  0  0  0  0  0  0  0  0  0  0  0
    5.1513    1.0237    2.6682 C   0  0  0  0  0  0  0  0  0  0  0  0
    4.2354    0.2834    1.8988 C   0  0  0  0  0  0  0  0  0  0  0  0
    4.7370   -0.4658    0.8342 C   0  0  0  0  0  0  0  0  0  0  0  0
    2.3868   -0.1971   -2.3482 C   0  0  0  0  0  0  0  0  0  0  0  0
    2.0462   -1.0381   -3.2220 O   0  0  0  0  0  0  0  0  0  0  0  0
    3.2260    0.8534   -2.6971 O   0  0  0  0  0  1  0  0  0  0  0  0
   -1.9215   -0.6912   -2.9469 H   0  0  0  0  0  0  0  0  0  0  0  0
   -3.3117   -0.9387   -2.0630 H   0  0  0  0  0  0  0  0  0  0  0  0
   -2.4586    1.1804   -1.5395 H   0  0  0  0  0  0  0  0  0  0  0  0
   -1.9720   -0.9174    0.6914 H   0  0  0  0  0  0  0  0  0  0  0  0
   -1.9961    0.8547    0.9652 H   0  0  0  0  0  0  0  0  0  0  0  0
   -4.3515   -2.1335    0.5232 H   0  0  0  0  0  0  0  0  0  0  0  0
   -6.8224   -1.3891    0.6199 H   0  0  0  0  0  0  0  0  0  0  0  0
   -8.1370    1.0180    0.5812 H   0  0  0  0  0  0  0  0  0  0  0  0
   -7.7710    3.4889    0.4473 H   0  0  0  0  0  0  0  0  0  0  0  0
   -5.4624    4.4054    0.2985 H   0  0  0  0  0  0  0  0  0  0  0  0
   -3.4959    2.8633    0.2844 H   0  0  0  0  0  0  0  0  0  0  0  0
    0.0822   -1.4922   -0.6898 H   0  0  0  0  0  0  0  0  0  0  0  0
    2.1586    0.5861   -0.3639 H   0  0  0  0  0  0  0  0  0  0  0  0
    2.1978   -1.6672    0.7792 H   0  0  0  0  0  0  0  0  0  0  0  0
    2.4638   -2.4603   -0.8053 H   0  0  0  0  0  0  0  0  0  0  0  0
    4.9667   -2.3783   -1.7946 H   0  0  0  0  0  0  0  0  0  0  0  0
    7.2364   -1.4395   -0.9971 H   0  0  0  0  0  0  0  0  0  0  0  0
    8.0576    0.2205    1.0262 H   0  0  0  0  0  0  0  0  0  0  0  0
    7.2245    1.5762    2.9563 H   0  0  0  0  0  0  0  0  0  0  0  0
    4.7972    1.6155    3.5023 H   0  0  0  0  0  0  0  0  0  0  0  0
    3.1779    0.2983    2.1284 H   0  0  0  0  0  0  0  0  0  0  0  0
  1  2  1  0
  2  3  1  0
  3  4  1  0
  4  5  2  0
  5  6  1  0
  6  7  1  0
  7  8  2  0
  8  9  1  0
  9 10  2  0
 10 11  1  0
 11 12  2  0
  2 13  1  0
 13 14  2  0
 13 15  1  0
 15 16  1  0
 16 17  1  0
 17 18  1  0
 18 19  2  0
 19 20  1  0
 20 21  1  0
 21 22  2  0
 22 23  1  0
 23 24  2  0
 24 25  1  0
 25 26  2  0
 16 27  1  0
 27 28  2  0
 27 29  1  0
 12  4  1  0
 26 18  1  0
 12  7  1  0
 26 21  1  0
  1 30  1  0
  1 31  1  0
  2 32  1  6
  3 33  1  0
  3 34  1  0
  5 35  1  0
  6 36  1  0
  8 37  1  0
  9 38  1  0
 10 39  1  0
 11 40  1  0
 15 41  1  0
 16 42  1  1
 17 43  1  0
 17 44  1  0
 19 45  1  0
 20 46  1  0
 22 47  1  0
 23 48  1  0
 24 49  1  0
 25 50  1  0
M  CHG  1  29  -1
M  END
>  <UniqueID>  (64) 
63

>  <SMILES>  (64) 
N[C@@H](Cc1c[nH]c2ccccc12)C(=O)N[C@@H](Cc1c[nH]c2ccccc12)C(=O)[O-]

>  <Energy>  (64) 
111.20149486227257

>  <Genealogy>  (64) 
N[C@@H](Cc1c[nH]c2ccccc12)C(=O)N[C@@H](Cc1c[nH]c2ccccc12)C(=O)[O-] (protonated)
N[C@@H](Cc1c[nH]c2ccccc12)C(=O)N[C@@H](Cc1c[nH]c2ccccc12)C(=O)[O-] (3D coordinates assigned)
N[C@@H](Cc1c[nH]c2ccccc12)C(=O)N[C@@H](Cc1c[nH]c2ccccc12)C(=O)[O-] (optimized conformer: 111.20149486227257 kcal/mol)

$$$$
untitled_line_64
     RDKit          3D

 47 50  0  0  0  0  0  0  0  0999 V2000
    0.7561   -1.9187    3.3502 O   0  0  0  0  0  0  0  0  0  0  0  0
    0.4779   -1.3667    2.2509 C   0  0  0  0  0  0  0  0  0  0  0  0
    1.3403   -1.6092    1.0540 C   0  0  0  0  0  0  0  0  0  0  0  0
    2.5513   -0.6747    1.0696 C   0  0  0  0  0  0  0  0  0  0  0  0
    3.3435   -0.8249   -0.1941 C   0  0  0  0  0  0  0  0  0  0  0  0
    4.3281   -1.7755   -0.4472 C   0  0  0  0  0  0  0  0  0  0  0  0
    4.7617   -1.6763   -1.7249 N   0  0  0  0  0  0  0  0  0  0  0  0
    4.0500   -0.6813   -2.2832 C   0  0  0  0  0  0  0  0  0  0  0  0
    4.1242   -0.2231   -3.5982 C   0  0  0  0  0  0  0  0  0  0  0  0
    3.2636    0.8227   -3.9796 C   0  0  0  0  0  0  0  0  0  0  0  0
    2.3558    1.3780   -3.0503 C   0  0  0  0  0  0  0  0  0  0  0  0
    2.2994    0.8920   -1.7314 C   0  0  0  0  0  0  0  0  0  0  0  0
    3.1688   -0.1415   -1.3815 C   0  0  0  0  0  0  0  0  0  0  0  0
   -0.6295   -0.4667    2.1487 N   0  0  0  0  0  2  0  0  0  0  0  0
   -1.5365   -0.1588    3.2524 C   0  0  1  0  0  0  0  0  0  0  0  0
   -2.4200    1.0470    2.8880 C   0  0  0  0  0  0  0  0  0  0  0  0
   -3.2119    0.8297    1.6273 C   0  0  0  0  0  0  0  0  0  0  0  0
   -4.4881    0.2814    1.5351 C   0  0  0  0  0  0  0  0  0  0  0  0
   -4.8643    0.1757    0.2403 N   0  0  0  0  0  0  0  0  0  0  0  0
   -3.8352    0.6448   -0.4860 C   0  0  0  0  0  0  0  0  0  0  0  0
   -3.7483    0.7228   -1.8755 C   0  0  0  0  0  0  0  0  0  0  0  0
   -2.5648    1.2393   -2.4325 C   0  0  0  0  0  0  0  0  0  0  0  0
   -1.5067    1.6613   -1.5981 C   0  0  0  0  0  0  0  0  0  0  0  0
   -1.6192    1.5664   -0.1990 C   0  0  0  0  0  0  0  0  0  0  0  0
   -2.8060    1.0514    0.3245 C   0  0  0  0  0  0  0  0  0  0  0  0
   -2.3716   -1.3586    3.6120 C   0  0  0  0  0  0  0  0  0  0  0  0
   -2.7181   -2.1900    2.7302 O   0  0  0  0  0  0  0  0  0  0  0  0
   -2.8045   -1.5298    4.9211 O   0  0  0  0  0  1  0  0  0  0  0  0
    1.6826   -2.6670    1.0526 H   0  0  0  0  0  0  0  0  0  0  0  0
    0.7402   -1.4377    0.1333 H   0  0  0  0  0  0  0  0  0  0  0  0
    3.1997   -0.9172    1.9399 H   0  0  0  0  0  0  0  0  0  0  0  0
    2.2196    0.3814    1.1748 H   0  0  0  0  0  0  0  0  0  0  0  0
    4.6920   -2.5107    0.2593 H   0  0  0  0  0  0  0  0  0  0  0  0
    5.4883   -2.2680   -2.1860 H   0  0  0  0  0  0  0  0  0  0  0  0
    4.8182   -0.6600   -4.3048 H   0  0  0  0  0  0  0  0  0  0  0  0
    3.2949    1.2018   -4.9927 H   0  0  0  0  0  0  0  0  0  0  0  0
    1.6977    2.1816   -3.3557 H   0  0  0  0  0  0  0  0  0  0  0  0
    1.6043    1.3101   -1.0151 H   0  0  0  0  0  0  0  0  0  0  0  0
   -0.9297    0.1244    4.1409 H   0  0  0  0  0  0  0  0  0  0  0  0
   -3.1160    1.2661    3.7268 H   0  0  0  0  0  0  0  0  0  0  0  0
   -1.7758    1.9434    2.7621 H   0  0  0  0  0  0  0  0  0  0  0  0
   -5.1006   -0.0340    2.3696 H   0  0  0  0  0  0  0  0  0  0  0  0
   -5.7683   -0.2055   -0.1186 H   0  0  0  0  0  0  0  0  0  0  0  0
   -4.5645    0.3948   -2.5070 H   0  0  0  0  0  0  0  0  0  0  0  0
   -2.4648    1.3139   -3.5077 H   0  0  0  0  0  0  0  0  0  0  0  0
   -0.6041    2.0612   -2.0385 H   0  0  0  0  0  0  0  0  0  0  0  0
   -0.8096    1.8850    0.4443 H   0  0  0  0  0  0  0  0  0  0  0  0
  1  2  2  0
  2  3  1  0
  3  4  1  0
  4  5  1  0
  5  6  2  0
  6  7  1  0
  7  8  1  0
  8  9  2  0
  9 10  1  0
 10 11  2  0
 11 12  1  0
 12 13  2  0
  2 14  1  0
 14 15  1  0
 15 16  1  0
 16 17  1  0
 17 18  2  0
 18 19  1  0
 19 20  1  0
 20 21  2  0
 21 22  1  0
 22 23  2  0
 23 24  1  0
 24 25  2  0
 15 26  1  0
 26 27  2  0
 26 28  1  0
 13  5  1  0
 25 17  1  0
 13  8  1  0
 25 20  1  0
  3 29  1  0
  3 30  1  0
  4 31  1  0
  4 32  1  0
  6 33  1  0
  7 34  1  0
  9 35  1  0
 10 36  1  0
 11 37  1  0
 12 38  1  0
 15 39  1  1
 16 40  1  0
 16 41  1  0
 18 42  1  0
 19 43  1  0
 21 44  1  0
 22 45  1  0
 23 46  1  0
 24 47  1  0
M  CHG  2  14  -1  28  -1
M  END
>  <UniqueID>  (65) 
64

>  <SMILES>  (65) 
O=C(CCc1c[nH]c2ccccc12)[N-][C@@H](Cc1c[nH]c2ccccc12)C(=O)[O-]

>  <Energy>  (65) 
106.27784315739008

>  <Genealogy>  (65) 
O=C(CCc1c[nH]c2ccccc12)[N-]C(Cc1c[nH]c2ccccc12)C(=O)[O-] (protonated)
O=C(CCc1c[nH]c2ccccc12)[N-][C@@H](Cc1c[nH]c2ccccc12)C(=O)[O-] (chirality)
O=C(CCc1c[nH]c2ccccc12)[N-][C@@H](Cc1c[nH]c2ccccc12)C(=O)[O-] (3D coordinates assigned)
O=C(CCc1c[nH]c2ccccc12)[N-][C@@H](Cc1c[nH]c2ccccc12)C(=O)[O-] (optimized conformer: 106.27784315739008 kcal/mol)

$$$$
untitled_line_65
     RDKit          3D

 38 39  0  0  0  0  0  0  0  0999 V2000
    3.1876    2.6361    1.4173 H   0  0  0  0  0  0  0  0  0  0  0  0
    2.2168    2.6715    0.9352 C   0  0  0  0  0  0  0  0  0  0  0  0
    1.0791    3.1254    1.7633 C   0  0  0  0  0  0  0  0  0  0  0  0
    0.0115    3.5364    1.2342 O   0  0  0  0  0  0  0  0  0  0  0  0
    1.2292    3.1928    3.2485 C   0  0  0  0  0  0  0  0  0  0  0  0
    1.7548    2.2877    3.6198 H   0  0  0  0  0  0  0  0  0  0  0  0
    1.8161    4.0946    3.5211 H   0  0  0  0  0  0  0  0  0  0  0  0
    0.2326    3.2473    3.7359 H   0  0  0  0  0  0  0  0  0  0  0  0
    2.1361    2.3408   -0.3665 C   0  0  0  0  0  0  0  0  0  0  0  0
    0.8810    2.2738   -1.0596 N   0  0  0  0  0  0  0  0  0  0  0  0
    0.8492    2.6948   -2.0163 H   0  0  0  0  0  0  0  0  0  0  0  0
   -0.0858    1.2141   -0.7596 C   0  0  1  0  0  0  0  0  0  0  0  0
    0.0099    0.9209    0.3106 H   0  0  0  0  0  0  0  0  0  0  0  0
   -1.4809    1.7230   -0.9973 C   0  0  0  0  0  0  0  0  0  0  0  0
   -2.3676    1.5707   -0.1161 O   0  0  0  0  0  0  0  0  0  0  0  0
   -1.8103    2.3347   -2.2010 O   0  0  0  0  0  1  0  0  0  0  0  0
    0.2097   -0.0192   -1.6302 C   0  0  0  0  0  0  0  0  0  0  0  0
    1.2784   -0.3014   -1.5120 H   0  0  0  0  0  0  0  0  0  0  0  0
    0.0504    0.2179   -2.7042 H   0  0  0  0  0  0  0  0  0  0  0  0
   -0.6335   -1.1954   -1.2272 C   0  0  0  0  0  0  0  0  0  0  0  0
   -0.3999   -2.0458   -0.1505 C   0  0  0  0  0  0  0  0  0  0  0  0
    0.4489   -1.9965    0.5191 H   0  0  0  0  0  0  0  0  0  0  0  0
   -1.4006   -2.9483   -0.0356 N   0  0  0  0  0  0  0  0  0  0  0  0
   -1.4851   -3.6993    0.6850 H   0  0  0  0  0  0  0  0  0  0  0  0
   -2.2689   -2.6682   -1.0229 C   0  0  0  0  0  0  0  0  0  0  0  0
   -3.4716   -3.3174   -1.2988 C   0  0  0  0  0  0  0  0  0  0  0  0
   -3.8048   -4.1563   -0.7016 H   0  0  0  0  0  0  0  0  0  0  0  0
   -4.2419   -2.8447   -2.3768 C   0  0  0  0  0  0  0  0  0  0  0  0
   -5.1808   -3.3257   -2.6179 H   0  0  0  0  0  0  0  0  0  0  0  0
   -3.7993   -1.7447   -3.1445 C   0  0  0  0  0  0  0  0  0  0  0  0
   -4.4013   -1.3884   -3.9703 H   0  0  0  0  0  0  0  0  0  0  0  0
   -2.5820   -1.1078   -2.8423 C   0  0  0  0  0  0  0  0  0  0  0  0
   -2.2403   -0.2639   -3.4265 H   0  0  0  0  0  0  0  0  0  0  0  0
   -1.8380   -1.6011   -1.7697 C   0  0  0  0  0  0  0  0  0  0  0  0
    3.3940    2.0323   -1.1231 C   0  0  0  0  0  0  0  0  0  0  0  0
    3.9394    1.2003   -0.6290 H   0  0  0  0  0  0  0  0  0  0  0  0
    4.0448    2.9315   -1.1555 H   0  0  0  0  0  0  0  0  0  0  0  0
    3.1579    1.7263   -2.1641 H   0  0  0  0  0  0  0  0  0  0  0  0
  1  2  1  0
  2  3  1  0
  3  4  2  0
  3  5  1  0
  5  6  1  0
  5  7  1  0
  5  8  1  0
  2  9  2  0
  9 10  1  0
 10 11  1  0
 10 12  1  0
 12 13  1  1
 12 14  1  0
 14 15  2  0
 14 16  1  0
 12 17  1  0
 17 18  1  0
 17 19  1  0
 17 20  1  0
 20 21  2  0
 21 22  1  0
 21 23  1  0
 23 24  1  0
 23 25  1  0
 25 26  2  0
 26 27  1  0
 26 28  1  0
 28 29  1  0
 28 30  2  0
 30 31  1  0
 30 32  1  0
 32 33  1  0
 32 34  2  0
  9 35  1  0
 35 36  1  0
 35 37  1  0
 35 38  1  0
 34 20  1  0
 34 25  1  0
M  CHG  1  16  -1
M  END
>  <UniqueID>  (66) 
65

>  <SMILES>  (66) 
CC(=O)/C=C(/C)N[C@H](Cc1c[nH]c2ccccc12)C(=O)[O-]

>  <Energy>  (66) 
69.81588676357234

>  <Genealogy>  (66) 
CC(=O)/C=C(/C)NC(Cc1c[nH]c2ccccc12)C(=O)[O-] (protonated)
CC(=O)/C=C(/C)N[C@H](Cc1c[nH]c2ccccc12)C(=O)[O-] (chirality)
CC(=O)/C=C(/C)N[C@H](Cc1c[nH]c2ccccc12)C(=O)[O-] (cis-trans isomerization)
CC(=O)/C=C(/C)N[C@H](Cc1c[nH]c2ccccc12)C(=O)[O-] (3D coordinates assigned)
CC(=O)/C=C(/C)N[C@H](Cc1c[nH]c2ccccc12)C(=O)[O-] (optimized conformer: 69.81588676357234 kcal/mol)

$$$$
untitled_line_66
     RDKit          3D

 40 43  0  0  0  0  0  0  0  0999 V2000
   -1.2820   -3.5261   -3.4157 O   0  0  0  0  0  0  0  0  0  0  0  0
   -0.4808   -3.4013   -2.4524 C   0  0  0  0  0  0  0  0  0  0  0  0
   -0.1603   -4.5158   -1.6850 O   0  0  0  0  0  1  0  0  0  0  0  0
    0.0715   -2.0432   -2.1133 C   0  0  2  0  0  0  0  0  0  0  0  0
    1.4249   -2.1421   -1.3769 C   0  0  0  0  0  0  0  0  0  0  0  0
    2.0161   -0.7821   -1.1314 C   0  0  0  0  0  0  0  0  0  0  0  0
    2.6053    0.0404   -2.0874 C   0  0  0  0  0  0  0  0  0  0  0  0
    2.8739    1.2579   -1.5638 N   0  0  0  0  0  0  0  0  0  0  0  0
    2.4493    1.2166   -0.2892 C   0  0  0  0  0  0  0  0  0  0  0  0
    2.4597    2.2586    0.6371 C   0  0  0  0  0  0  0  0  0  0  0  0
    1.9139    2.0131    1.9101 C   0  0  0  0  0  0  0  0  0  0  0  0
    1.3786    0.7454    2.2263 C   0  0  0  0  0  0  0  0  0  0  0  0
    1.3824   -0.2875    1.2723 C   0  0  0  0  0  0  0  0  0  0  0  0
    1.9236   -0.0133    0.0150 C   0  0  0  0  0  0  0  0  0  0  0  0
   -0.9069   -1.2831   -1.3242 N   0  0  0  0  0  0  0  0  0  0  0  0
   -1.1002    0.1356   -1.4114 C   0  0  0  0  0  0  0  0  0  0  0  0
   -0.7108    0.8412   -2.3798 O   0  0  0  0  0  0  0  0  0  0  0  0
   -1.7377    0.6472   -0.2045 C   0  0  0  0  0  0  0  0  0  0  0  0
   -1.9277    1.9026    0.1971 C   0  0  0  0  0  0  0  0  0  0  0  0
   -2.3271    2.1529    1.6363 C   0  0  0  0  0  0  0  0  0  0  0  0
   -3.0862    0.9565    2.2771 C   0  0  0  0  0  0  0  0  0  0  0  0
   -2.5312   -0.3867    1.8559 C   0  0  0  0  0  0  0  0  0  0  0  0
   -1.9765   -0.4933    0.6508 C   0  0  0  0  0  0  0  0  0  0  0  0
   -1.4408   -1.6573   -0.0449 C   0  0  0  0  0  0  0  0  0  0  0  0
   -1.4093   -2.8273    0.4204 O   0  0  0  0  0  0  0  0  0  0  0  0
    0.2455   -1.5157   -3.0780 H   0  0  0  0  0  0  0  0  0  0  0  0
    2.1383   -2.7275   -1.9969 H   0  0  0  0  0  0  0  0  0  0  0  0
    1.3044   -2.6786   -0.4120 H   0  0  0  0  0  0  0  0  0  0  0  0
    2.7895   -0.2261   -3.1200 H   0  0  0  0  0  0  0  0  0  0  0  0
    3.2923    2.0740   -2.0631 H   0  0  0  0  0  0  0  0  0  0  0  0
    2.8637    3.2299    0.3826 H   0  0  0  0  0  0  0  0  0  0  0  0
    1.9005    2.8022    2.6505 H   0  0  0  0  0  0  0  0  0  0  0  0
    0.9568    0.5688    3.2071 H   0  0  0  0  0  0  0  0  0  0  0  0
    0.9686   -1.2577    1.5110 H   0  0  0  0  0  0  0  0  0  0  0  0
   -1.6416    2.7306   -0.4388 H   0  0  0  0  0  0  0  0  0  0  0  0
   -1.4020    2.3465    2.2207 H   0  0  0  0  0  0  0  0  0  0  0  0
   -2.9608    3.0635    1.6889 H   0  0  0  0  0  0  0  0  0  0  0  0
   -4.1527    1.0007    1.9682 H   0  0  0  0  0  0  0  0  0  0  0  0
   -3.0473    1.0418    3.3838 H   0  0  0  0  0  0  0  0  0  0  0  0
   -2.6770   -1.2610    2.4771 H   0  0  0  0  0  0  0  0  0  0  0  0
  1  2  2  0
  2  3  1  0
  2  4  1  0
  4  5  1  0
  5  6  1  0
  6  7  2  0
  7  8  1  0
  8  9  1  0
  9 10  2  0
 10 11  1  0
 11 12  2  0
 12 13  1  0
 13 14  2  0
  4 15  1  0
 15 16  1  0
 16 17  2  0
 16 18  1  0
 18 19  2  0
 19 20  1  0
 20 21  1  0
 21 22  1  0
 22 23  2  0
 23 24  1  0
 24 25  2  0
 14  6  1  0
 24 15  1  0
 14  9  1  0
 23 18  1  0
  4 26  1  6
  5 27  1  0
  5 28  1  0
  7 29  1  0
  8 30  1  0
 10 31  1  0
 11 32  1  0
 12 33  1  0
 13 34  1  0
 19 35  1  0
 20 36  1  0
 20 37  1  0
 21 38  1  0
 21 39  1  0
 22 40  1  0
M  CHG  1   3  -1
M  END
>  <UniqueID>  (67) 
66

>  <SMILES>  (67) 
O=C([O-])[C@H](Cc1c[nH]c2ccccc12)N1C(=O)C2=CCCC=C2C1=O

>  <Energy>  (67) 
101.21063663641829

>  <Genealogy>  (67) 
O=C([O-])[C@H](Cc1c[nH]c2ccccc12)N1C(=O)C2=CCCC=C2C1=O (protonated)
O=C([O-])[C@H](Cc1c[nH]c2ccccc12)N1C(=O)C2=CCCC=C2C1=O (3D coordinates assigned)
O=C([O-])[C@H](Cc1c[nH]c2ccccc12)N1C(=O)C2=CCCC=C2C1=O (nonaromatic ring conformer: 101.21063663641829 kcal/mol)

$$$$
untitled_line_67
     RDKit          3D

 30 31  0  0  0  0  0  0  0  0999 V2000
   -3.0452    0.8808    1.4526 C   0  0  0  0  0  0  0  0  0  0  0  0
   -2.2930   -0.2360    0.8677 N   0  0  0  0  0  4  0  0  0  0  0  0
   -1.8105    0.0732   -0.4973 C   0  0  1  0  0  0  0  0  0  0  0  0
   -0.8604   -1.0288   -1.0153 C   0  0  0  0  0  0  0  0  0  0  0  0
    0.4414   -1.0469   -0.2665 C   0  0  0  0  0  0  0  0  0  0  0  0
    0.8087   -1.9339    0.7415 C   0  0  0  0  0  0  0  0  0  0  0  0
    2.0350   -1.6225    1.2201 N   0  0  0  0  0  0  0  0  0  0  0  0
    2.4418   -0.5446    0.5272 C   0  0  0  0  0  0  0  0  0  0  0  0
    3.6430    0.1487    0.6708 C   0  0  0  0  0  0  0  0  0  0  0  0
    3.8615    1.2642   -0.1584 C   0  0  0  0  0  0  0  0  0  0  0  0
    2.8854    1.6578   -1.1008 C   0  0  0  0  0  0  0  0  0  0  0  0
    1.6820    0.9396   -1.2231 C   0  0  0  0  0  0  0  0  0  0  0  0
    1.4948   -0.1622   -0.3881 C   0  0  0  0  0  0  0  0  0  0  0  0
   -2.9616    0.2239   -1.4613 C   0  0  0  0  0  0  0  0  0  0  0  0
   -3.7813   -0.7176   -1.6316 O   0  0  0  0  0  0  0  0  0  0  0  0
   -3.1172    1.4049   -2.1761 O   0  0  0  0  0  1  0  0  0  0  0  0
   -3.3251    0.6350    2.4998 H   0  0  0  0  0  0  0  0  0  0  0  0
   -2.4282    1.8059    1.4674 H   0  0  0  0  0  0  0  0  0  0  0  0
   -3.9818    1.0689    0.8849 H   0  0  0  0  0  0  0  0  0  0  0  0
   -1.4778   -0.4215    1.4963 H   0  0  0  0  0  0  0  0  0  0  0  0
   -2.8989   -1.0900    0.8575 H   0  0  0  0  0  0  0  0  0  0  0  0
   -1.2461    1.0339   -0.4824 H   0  0  0  0  0  0  0  0  0  0  0  0
   -0.6365   -0.8572   -2.0912 H   0  0  0  0  0  0  0  0  0  0  0  0
   -1.3511   -2.0234   -0.9326 H   0  0  0  0  0  0  0  0  0  0  0  0
    0.2071   -2.7545    1.1100 H   0  0  0  0  0  0  0  0  0  0  0  0
    2.5533   -2.1168    1.9800 H   0  0  0  0  0  0  0  0  0  0  0  0
    4.3838   -0.1592    1.3974 H   0  0  0  0  0  0  0  0  0  0  0  0
    4.7832    1.8248   -0.0729 H   0  0  0  0  0  0  0  0  0  0  0  0
    3.0642    2.5179   -1.7329 H   0  0  0  0  0  0  0  0  0  0  0  0
    0.9296    1.2356   -1.9426 H   0  0  0  0  0  0  0  0  0  0  0  0
  1  2  1  0
  2  3  1  0
  3  4  1  0
  4  5  1  0
  5  6  2  0
  6  7  1  0
  7  8  1  0
  8  9  2  0
  9 10  1  0
 10 11  2  0
 11 12  1  0
 12 13  2  0
  3 14  1  0
 14 15  2  0
 14 16  1  0
 13  5  1  0
 13  8  1  0
  1 17  1  0
  1 18  1  0
  1 19  1  0
  2 20  1  0
  2 21  1  0
  3 22  1  1
  4 23  1  0
  4 24  1  0
  6 25  1  0
  7 26  1  0
  9 27  1  0
 10 28  1  0
 11 29  1  0
 12 30  1  0
M  CHG  2   2   1  16  -1
M  END
>  <UniqueID>  (68) 
67

>  <SMILES>  (68) 
C[NH2+][C@@H](Cc1c[nH]c2ccccc12)C(=O)[O-]

>  <Energy>  (68) 
60.61220214539167

>  <Genealogy>  (68) 
C[NH2+][C@@H](Cc1c[nH]c2ccccc12)C(=O)[O-] (protonated)
C[NH2+][C@@H](Cc1c[nH]c2ccccc12)C(=O)[O-] (3D coordinates assigned)
C[NH2+][C@@H](Cc1c[nH]c2ccccc12)C(=O)[O-] (optimized conformer: 60.61220214539167 kcal/mol)

$$$$
untitled_line_68
     RDKit          3D

 39 41  0  0  0  0  0  0  0  0999 V2000
    0.8950    2.4581   -3.6486 O   0  0  0  0  0  0  0  0  0  0  0  0
   -0.0468    2.7290   -2.8579 C   0  0  0  0  0  0  0  0  0  0  0  0
   -0.8786    3.8093   -3.1292 O   0  0  0  0  0  1  0  0  0  0  0  0
   -0.2583    1.8962   -1.6192 C   0  0  2  0  0  0  0  0  0  0  0  0
   -1.6904    1.3451   -1.5854 C   0  0  0  0  0  0  0  0  0  0  0  0
   -1.8711    0.3988   -0.4327 C   0  0  0  0  0  0  0  0  0  0  0  0
   -2.4125    0.7027    0.8128 C   0  0  0  0  0  0  0  0  0  0  0  0
   -2.3320   -0.3672    1.6365 N   0  0  0  0  0  0  0  0  0  0  0  0
   -1.7329   -1.3387    0.9264 C   0  0  0  0  0  0  0  0  0  0  0  0
   -1.4030   -2.6217    1.3608 C   0  0  0  0  0  0  0  0  0  0  0  0
   -0.7381   -3.4710    0.4574 C   0  0  0  0  0  0  0  0  0  0  0  0
   -0.4176   -3.0223   -0.8431 C   0  0  0  0  0  0  0  0  0  0  0  0
   -0.7632   -1.7222   -1.2540 C   0  0  0  0  0  0  0  0  0  0  0  0
   -1.4283   -0.9062   -0.3387 C   0  0  0  0  0  0  0  0  0  0  0  0
   -0.0064    2.6825   -0.3971 N   0  0  0  0  0  0  0  0  0  0  0  0
    1.6216    2.4606    0.1693 S   0  0  0  0  0  6  0  0  0  0  0  0
    2.5961    2.6944   -0.9521 O   0  0  0  0  0  0  0  0  0  0  0  0
    1.9079    3.4466    1.2668 O   0  0  0  0  0  0  0  0  0  0  0  0
    1.7940    0.8260    0.8022 C   0  0  0  0  0  0  0  0  0  0  0  0
    1.2336    0.4993    2.0450 C   0  0  0  0  0  0  0  0  0  0  0  0
    1.3443   -0.8014    2.5457 C   0  0  0  0  0  0  0  0  0  0  0  0
    2.0068   -1.7830    1.8035 C   0  0  0  0  0  0  0  0  0  0  0  0
    2.5562   -1.4657    0.5582 C   0  0  0  0  0  0  0  0  0  0  0  0
    2.4508   -0.1646    0.0568 C   0  0  0  0  0  0  0  0  0  0  0  0
    0.4234    1.0173   -1.6758 H   0  0  0  0  0  0  0  0  0  0  0  0
   -1.9091    0.8026   -2.5311 H   0  0  0  0  0  0  0  0  0  0  0  0
   -2.4195    2.1802   -1.4961 H   0  0  0  0  0  0  0  0  0  0  0  0
   -2.8246    1.6597    1.1049 H   0  0  0  0  0  0  0  0  0  0  0  0
   -2.6511   -0.4169    2.6295 H   0  0  0  0  0  0  0  0  0  0  0  0
   -1.6397   -2.9513    2.3640 H   0  0  0  0  0  0  0  0  0  0  0  0
   -0.4623   -4.4713    0.7644 H   0  0  0  0  0  0  0  0  0  0  0  0
    0.1015   -3.6814   -1.5266 H   0  0  0  0  0  0  0  0  0  0  0  0
   -0.5150   -1.3698   -2.2466 H   0  0  0  0  0  0  0  0  0  0  0  0
   -0.1600    3.7043   -0.5625 H   0  0  0  0  0  0  0  0  0  0  0  0
    0.7060    1.2487    2.6213 H   0  0  0  0  0  0  0  0  0  0  0  0
    0.9074   -1.0510    3.5039 H   0  0  0  0  0  0  0  0  0  0  0  0
    2.0844   -2.7917    2.1880 H   0  0  0  0  0  0  0  0  0  0  0  0
    3.0589   -2.2293   -0.0210 H   0  0  0  0  0  0  0  0  0  0  0  0
    2.8726    0.0653   -0.9130 H   0  0  0  0  0  0  0  0  0  0  0  0
  1  2  2  0
  2  3  1  0
  2  4  1  0
  4  5  1  0
  5  6  1  0
  6  7  2  0
  7  8  1  0
  8  9  1  0
  9 10  2  0
 10 11  1  0
 11 12  2  0
 12 13  1  0
 13 14  2  0
  4 15  1  0
 15 16  1  0
 16 17  2  0
 16 18  2  0
 16 19  1  0
 19 20  2  0
 20 21  1  0
 21 22  2  0
 22 23  1  0
 23 24  2  0
 14  6  1  0
 24 19  1  0
 14  9  1  0
  4 25  1  6
  5 26  1  0
  5 27  1  0
  7 28  1  0
  8 29  1  0
 10 30  1  0
 11 31  1  0
 12 32  1  0
 13 33  1  0
 15 34  1  0
 20 35  1  0
 21 36  1  0
 22 37  1  0
 23 38  1  0
 24 39  1  0
M  CHG  1   3  -1
M  END
>  <UniqueID>  (69) 
68

>  <SMILES>  (69) 
O=C([O-])[C@H](Cc1c[nH]c2ccccc12)NS(=O)(=O)c1ccccc1

>  <Energy>  (69) 
65.96911958078506

>  <Genealogy>  (69) 
O=C([O-])C(Cc1c[nH]c2ccccc12)NS(=O)(=O)c1ccccc1 (protonated)
O=C([O-])[C@H](Cc1c[nH]c2ccccc12)NS(=O)(=O)c1ccccc1 (chirality)
O=C([O-])[C@H](Cc1c[nH]c2ccccc12)NS(=O)(=O)c1ccccc1 (3D coordinates assigned)
O=C([O-])[C@H](Cc1c[nH]c2ccccc12)NS(=O)(=O)c1ccccc1 (optimized conformer: 65.96911958078506 kcal/mol)

$$$$
untitled_line_69
     RDKit          3D

 29 30  0  0  0  0  0  0  0  0999 V2000
   -1.2882    2.7636   -1.1462 O   0  0  0  0  0  0  0  0  0  0  0  0
   -0.4635    2.3790   -0.2746 C   0  0  0  0  0  0  0  0  0  0  0  0
    0.8953    2.5789   -0.4836 O   0  0  0  0  0  1  0  0  0  0  0  0
   -0.9354    1.6831    0.9729 C   0  0  2  0  0  0  0  0  0  0  0  0
   -1.5386    0.3006    0.6552 C   0  0  0  0  0  0  0  0  0  0  0  0
   -0.4989   -0.6459    0.1243 C   0  0  0  0  0  0  0  0  0  0  0  0
    0.4325   -1.3536    0.8784 C   0  0  0  0  0  0  0  0  0  0  0  0
    1.2632   -2.0507    0.0703 N   0  0  0  0  0  0  0  0  0  0  0  0
    0.8715   -1.7811   -1.1870 C   0  0  0  0  0  0  0  0  0  0  0  0
    1.4389   -2.2572   -2.3683 C   0  0  0  0  0  0  0  0  0  0  0  0
    0.8780   -1.8307   -3.5858 C   0  0  0  0  0  0  0  0  0  0  0  0
   -0.2233   -0.9463   -3.5955 C   0  0  0  0  0  0  0  0  0  0  0  0
   -0.7747   -0.4809   -2.3880 C   0  0  0  0  0  0  0  0  0  0  0  0
   -0.1992   -0.9233   -1.1960 C   0  0  0  0  0  0  0  0  0  0  0  0
   -1.9283    2.5546    1.6997 C   0  0  0  0  0  0  0  0  0  0  0  0
   -3.1184    2.6352    1.2890 O   0  0  0  0  0  0  0  0  0  0  0  0
   -1.5159    3.3308    2.8285 N   0  0  0  0  0  0  0  0  0  0  0  0
   -2.4029    4.1170    3.4841 O   0  0  0  0  0  0  0  0  0  0  0  0
   -0.0586    1.5270    1.6402 H   0  0  0  0  0  0  0  0  0  0  0  0
   -2.3720    0.3957   -0.0742 H   0  0  0  0  0  0  0  0  0  0  0  0
   -1.9633   -0.1372    1.5852 H   0  0  0  0  0  0  0  0  0  0  0  0
    0.5053   -1.3470    1.9582 H   0  0  0  0  0  0  0  0  0  0  0  0
    2.0562   -2.6620    0.3669 H   0  0  0  0  0  0  0  0  0  0  0  0
    2.2856   -2.9311   -2.3508 H   0  0  0  0  0  0  0  0  0  0  0  0
    1.2945   -2.1811   -4.5212 H   0  0  0  0  0  0  0  0  0  0  0  0
   -0.6456   -0.6238   -4.5383 H   0  0  0  0  0  0  0  0  0  0  0  0
   -1.6175    0.1973   -2.3912 H   0  0  0  0  0  0  0  0  0  0  0  0
   -0.5295    3.2846    3.1689 H   0  0  0  0  0  0  0  0  0  0  0  0
   -2.3332    5.0016    3.0422 H   0  0  0  0  0  0  0  0  0  0  0  0
  1  2  2  0
  2  3  1  0
  2  4  1  0
  4  5  1  0
  5  6  1  0
  6  7  2  0
  7  8  1  0
  8  9  1  0
  9 10  2  0
 10 11  1  0
 11 12  2  0
 12 13  1  0
 13 14  2  0
  4 15  1  0
 15 16  2  0
 15 17  1  0
 17 18  1  0
 14  6  1  0
 14  9  1  0
  4 19  1  1
  5 20  1  0
  5 21  1  0
  7 22  1  0
  8 23  1  0
 10 24  1  0
 11 25  1  0
 12 26  1  0
 13 27  1  0
 17 28  1  0
 18 29  1  0
M  CHG  1   3  -1
M  END
>  <UniqueID>  (70) 
69

>  <SMILES>  (70) 
O=C([O-])[C@H](Cc1c[nH]c2ccccc12)C(=O)NO

>  <Energy>  (70) 
57.14808714475281

>  <Genealogy>  (70) 
O=C([O-])[C@H](Cc1c[nH]c2ccccc12)C(=O)NO (chirality)
O=C([O-])[C@H](Cc1c[nH]c2ccccc12)C(=O)NO (3D coordinates assigned)
O=C([O-])[C@H](Cc1c[nH]c2ccccc12)C(=O)NO (optimized conformer: 57.14808714475281 kcal/mol)

$$$$
untitled_line_70
     RDKit          3D

 31 32  0  0  0  0  0  0  0  0999 V2000
    0.2676    4.2121    0.2668 C   0  0  0  0  0  0  0  0  0  0  0  0
    0.0273    2.8771    0.8916 C   0  0  0  0  0  0  0  0  0  0  0  0
    0.9970    2.0907    1.0679 O   0  0  0  0  0  0  0  0  0  0  0  0
   -1.3072    2.4825    1.2430 N   0  0  0  0  0  0  0  0  0  0  0  0
   -1.6418    1.1303    1.7031 C   0  0  2  0  0  0  0  0  0  0  0  0
   -2.2637    0.3135    0.5582 C   0  0  0  0  0  0  0  0  0  0  0  0
   -1.2970    0.1446   -0.5778 C   0  0  0  0  0  0  0  0  0  0  0  0
   -1.2324    0.9186   -1.7329 C   0  0  0  0  0  0  0  0  0  0  0  0
   -0.1762    0.5469   -2.4916 N   0  0  0  0  0  0  0  0  0  0  0  0
    0.4327   -0.4459   -1.8200 C   0  0  0  0  0  0  0  0  0  0  0  0
    1.5873   -1.1334   -2.1915 C   0  0  0  0  0  0  0  0  0  0  0  0
    2.0715   -2.1250   -1.3186 C   0  0  0  0  0  0  0  0  0  0  0  0
    1.4013   -2.4007   -0.1059 C   0  0  0  0  0  0  0  0  0  0  0  0
    0.2397   -1.6887    0.2444 C   0  0  0  0  0  0  0  0  0  0  0  0
   -0.2197   -0.7166   -0.6445 C   0  0  0  0  0  0  0  0  0  0  0  0
   -2.5932    1.2111    2.8625 C   0  0  0  0  0  0  0  0  0  0  0  0
   -3.6967    1.8076    2.7445 O   0  0  0  0  0  0  0  0  0  0  0  0
   -2.2636    0.6152    4.0735 O   0  0  0  0  0  1  0  0  0  0  0  0
   -0.2859    4.9946    0.8267 H   0  0  0  0  0  0  0  0  0  0  0  0
    1.3502    4.4602    0.2818 H   0  0  0  0  0  0  0  0  0  0  0  0
   -0.0865    4.1948   -0.7850 H   0  0  0  0  0  0  0  0  0  0  0  0
   -2.0887    3.1418    1.0234 H   0  0  0  0  0  0  0  0  0  0  0  0
   -0.7263    0.6072    2.0576 H   0  0  0  0  0  0  0  0  0  0  0  0
   -3.1830    0.8170    0.1862 H   0  0  0  0  0  0  0  0  0  0  0  0
   -2.5569   -0.6920    0.9312 H   0  0  0  0  0  0  0  0  0  0  0  0
   -1.9083    1.7232   -1.9916 H   0  0  0  0  0  0  0  0  0  0  0  0
    0.1158    0.9639   -3.4034 H   0  0  0  0  0  0  0  0  0  0  0  0
    2.0983   -0.9096   -3.1190 H   0  0  0  0  0  0  0  0  0  0  0  0
    2.9657   -2.6775   -1.5764 H   0  0  0  0  0  0  0  0  0  0  0  0
    1.7851   -3.1630    0.5594 H   0  0  0  0  0  0  0  0  0  0  0  0
   -0.2761   -1.8908    1.1741 H   0  0  0  0  0  0  0  0  0  0  0  0
  1  2  1  0
  2  3  2  0
  2  4  1  0
  4  5  1  0
  5  6  1  0
  6  7  1  0
  7  8  2  0
  8  9  1  0
  9 10  1  0
 10 11  2  0
 11 12  1  0
 12 13  2  0
 13 14  1  0
 14 15  2  0
  5 16  1  0
 16 17  2  0
 16 18  1  0
 15  7  1  0
 15 10  1  0
  1 19  1  0
  1 20  1  0
  1 21  1  0
  4 22  1  0
  5 23  1  1
  6 24  1  0
  6 25  1  0
  8 26  1  0
  9 27  1  0
 11 28  1  0
 12 29  1  0
 13 30  1  0
 14 31  1  0
M  CHG  1  18  -1
M  END
>  <UniqueID>  (71) 
70

>  <SMILES>  (71) 
CC(=O)N[C@H](Cc1c[nH]c2ccccc12)C(=O)[O-]

>  <Energy>  (71) 
56.94058912998055

>  <Genealogy>  (71) 
CC(=O)N[C@H](Cc1c[nH]c2ccccc12)C(=O)[O-] (protonated)
CC(=O)N[C@H](Cc1c[nH]c2ccccc12)C(=O)[O-] (3D coordinates assigned)
CC(=O)N[C@H](Cc1c[nH]c2ccccc12)C(=O)[O-] (optimized conformer: 56.94058912998055 kcal/mol)

$$$$
untitled_line_71
     RDKit          3D

 27 28  0  0  0  0  0  0  0  0999 V2000
   -0.9596    2.1232    2.2880 C   0  0  0  0  0  0  0  0  0  0  0  0
   -0.4967    0.7422    2.7743 C   0  0  1  0  0  0  0  0  0  0  0  0
   -0.8176   -0.3788    1.7627 C   0  0  0  0  0  0  0  0  0  0  0  0
   -0.1042   -0.2246    0.4461 C   0  0  0  0  0  0  0  0  0  0  0  0
    1.1819   -0.6647    0.1451 C   0  0  0  0  0  0  0  0  0  0  0  0
    1.5130   -0.3274   -1.1218 N   0  0  0  0  0  0  0  0  0  0  0  0
    0.4488    0.3224   -1.6237 C   0  0  0  0  0  0  0  0  0  0  0  0
    0.3178    0.8677   -2.9002 C   0  0  0  0  0  0  0  0  0  0  0  0
   -0.8910    1.5128   -3.2189 C   0  0  0  0  0  0  0  0  0  0  0  0
   -1.9300    1.5970   -2.2658 C   0  0  0  0  0  0  0  0  0  0  0  0
   -1.7701    1.0374   -0.9852 C   0  0  0  0  0  0  0  0  0  0  0  0
   -0.5594    0.4055   -0.6971 C   0  0  0  0  0  0  0  0  0  0  0  0
    0.9611    0.7450    3.1551 C   0  0  0  0  0  0  0  0  0  0  0  0
    1.8022    1.4073    2.4901 O   0  0  0  0  0  0  0  0  0  0  0  0
    1.3952   -0.0341    4.2200 O   0  0  0  0  0  1  0  0  0  0  0  0
   -2.0471    2.1039    2.0634 H   0  0  0  0  0  0  0  0  0  0  0  0
   -0.7845    2.8818    3.0807 H   0  0  0  0  0  0  0  0  0  0  0  0
   -0.4091    2.4338    1.3750 H   0  0  0  0  0  0  0  0  0  0  0  0
   -1.0762    0.5196    3.6975 H   0  0  0  0  0  0  0  0  0  0  0  0
   -0.5389   -1.3595    2.2065 H   0  0  0  0  0  0  0  0  0  0  0  0
   -1.9142   -0.4136    1.5864 H   0  0  0  0  0  0  0  0  0  0  0  0
    1.8402   -1.1967    0.8196 H   0  0  0  0  0  0  0  0  0  0  0  0
    2.4156   -0.5293   -1.6067 H   0  0  0  0  0  0  0  0  0  0  0  0
    1.1197    0.7981   -3.6238 H   0  0  0  0  0  0  0  0  0  0  0  0
   -1.0255    1.9471   -4.2009 H   0  0  0  0  0  0  0  0  0  0  0  0
   -2.8559    2.0951   -2.5224 H   0  0  0  0  0  0  0  0  0  0  0  0
   -2.5639    1.0984   -0.2529 H   0  0  0  0  0  0  0  0  0  0  0  0
  1  2  1  0
  2  3  1  0
  3  4  1  0
  4  5  2  0
  5  6  1  0
  6  7  1  0
  7  8  2  0
  8  9  1  0
  9 10  2  0
 10 11  1  0
 11 12  2  0
  2 13  1  0
 13 14  2  0
 13 15  1  0
 12  4  1  0
 12  7  1  0
  1 16  1  0
  1 17  1  0
  1 18  1  0
  2 19  1  1
  3 20  1  0
  3 21  1  0
  5 22  1  0
  6 23  1  0
  8 24  1  0
  9 25  1  0
 10 26  1  0
 11 27  1  0
M  CHG  1  15  -1
M  END
>  <UniqueID>  (72) 
71

>  <SMILES>  (72) 
C[C@@H](Cc1c[nH]c2ccccc12)C(=O)[O-]

>  <Energy>  (72) 
56.224556450709144

>  <Genealogy>  (72) 
CC(Cc1c[nH]c2ccccc12)C(=O)[O-] (protonated)
C[C@@H](Cc1c[nH]c2ccccc12)C(=O)[O-] (chirality)
C[C@@H](Cc1c[nH]c2ccccc12)C(=O)[O-] (3D coordinates assigned)
C[C@@H](Cc1c[nH]c2ccccc12)C(=O)[O-] (optimized conformer: 56.224556450709144 kcal/mol)

$$$$
untitled_line_72
     RDKit          3D

 52 55  0  0  0  0  0  0  0  0999 V2000
   -1.1432   -2.1707   -2.7392 H   0  0  0  0  0  0  0  0  0  0  0  0
   -0.6137   -1.4923   -2.0813 C   0  0  0  0  0  0  0  0  0  0  0  0
   -0.2881   -1.9251   -0.8540 C   0  0  0  0  0  0  0  0  0  0  0  0
   -0.8555   -3.5144   -0.2491 S   0  0  0  0  0  0  0  0  0  0  0  0
   -0.2860   -3.0327    1.3860 C   0  0  0  0  0  0  0  0  0  0  0  0
   -1.0520   -3.6144    2.7121 S   0  0  0  0  0  0  0  0  0  0  0  0
    0.5152   -1.8448    1.4246 N   0  0  0  0  0  0  0  0  0  0  0  0
    1.1828   -1.3110    2.6256 C   0  0  1  0  0  0  0  0  0  0  0  0
    1.0306   -2.0054    3.4796 H   0  0  0  0  0  0  0  0  0  0  0  0
    2.6707   -1.2465    2.4048 C   0  0  0  0  0  0  0  0  0  0  0  0
    3.2279   -0.1806    2.0289 O   0  0  0  0  0  0  0  0  0  0  0  0
    3.4362   -2.3943    2.5666 O   0  0  0  0  0  1  0  0  0  0  0  0
    0.5933    0.0553    3.0335 C   0  0  0  0  0  0  0  0  0  0  0  0
    1.1154    0.4286    3.9412 H   0  0  0  0  0  0  0  0  0  0  0  0
    0.7492    0.8065    2.2301 H   0  0  0  0  0  0  0  0  0  0  0  0
   -0.8742   -0.0509    3.3290 C   0  0  0  0  0  0  0  0  0  0  0  0
   -1.9178    0.2003    2.4432 C   0  0  0  0  0  0  0  0  0  0  0  0
   -1.8111    0.5595    1.4286 H   0  0  0  0  0  0  0  0  0  0  0  0
   -3.1060   -0.0964    3.0171 N   0  0  0  0  0  0  0  0  0  0  0  0
   -4.0498   -0.0149    2.5778 H   0  0  0  0  0  0  0  0  0  0  0  0
   -2.8204   -0.5440    4.2522 C   0  0  0  0  0  0  0  0  0  0  0  0
   -3.7197   -1.0040    5.2130 C   0  0  0  0  0  0  0  0  0  0  0  0
   -4.7852   -1.0134    5.0237 H   0  0  0  0  0  0  0  0  0  0  0  0
   -3.1972   -1.4636    6.4359 C   0  0  0  0  0  0  0  0  0  0  0  0
   -3.8675   -1.8282    7.2033 H   0  0  0  0  0  0  0  0  0  0  0  0
   -1.8033   -1.4583    6.6660 C   0  0  0  0  0  0  0  0  0  0  0  0
   -1.4125   -1.8191    7.6085 H   0  0  0  0  0  0  0  0  0  0  0  0
   -0.9192   -0.9915    5.6765 C   0  0  0  0  0  0  0  0  0  0  0  0
    0.1501   -0.9922    5.8427 H   0  0  0  0  0  0  0  0  0  0  0  0
   -1.4677   -0.5348    4.4780 C   0  0  0  0  0  0  0  0  0  0  0  0
    0.5356   -1.2314    0.1384 C   0  0  0  0  0  0  0  0  0  0  0  0
    1.2451   -0.2223   -0.1187 O   0  0  0  0  0  0  0  0  0  0  0  0
   -0.2896   -0.1556   -2.6160 C   0  0  0  0  0  0  0  0  0  0  0  0
    0.3037   -0.0454   -3.8810 C   0  0  0  0  0  0  0  0  0  0  0  0
    0.5628   -0.9347   -4.4428 H   0  0  0  0  0  0  0  0  0  0  0  0
    0.5841    1.2127   -4.4221 C   0  0  0  0  0  0  0  0  0  0  0  0
    1.0638    1.2772   -5.3909 H   0  0  0  0  0  0  0  0  0  0  0  0
    0.2499    2.3789   -3.7153 C   0  0  0  0  0  0  0  0  0  0  0  0
    0.5782    3.7369   -4.2817 C   0  0  0  0  0  0  0  0  0  0  0  0
    0.7030    3.6826   -5.3856 H   0  0  0  0  0  0  0  0  0  0  0  0
   -0.2755    4.4234   -4.0918 H   0  0  0  0  0  0  0  0  0  0  0  0
    1.8412    4.3341   -3.6453 C   0  0  0  0  0  0  0  0  0  0  0  0
    1.7345    4.3623   -2.5390 H   0  0  0  0  0  0  0  0  0  0  0  0
    1.9548    5.3813   -4.0001 H   0  0  0  0  0  0  0  0  0  0  0  0
    3.1044    3.5577   -4.0158 C   0  0  0  0  0  0  0  0  0  0  0  0
    3.9931    4.0760   -3.5984 H   0  0  0  0  0  0  0  0  0  0  0  0
    3.0689    2.5312   -3.5942 H   0  0  0  0  0  0  0  0  0  0  0  0
    3.2135    3.4994   -5.1197 H   0  0  0  0  0  0  0  0  0  0  0  0
   -0.3689    2.2685   -2.4603 C   0  0  0  0  0  0  0  0  0  0  0  0
   -0.6377    3.1572   -1.9028 H   0  0  0  0  0  0  0  0  0  0  0  0
   -0.6489    1.0105   -1.9202 C   0  0  0  0  0  0  0  0  0  0  0  0
   -1.1485    0.9458   -0.9621 H   0  0  0  0  0  0  0  0  0  0  0  0
  1  2  1  0
  2  3  2  0
  3  4  1  0
  4  5  1  0
  5  6  2  0
  5  7  1  0
  7  8  1  0
  8  9  1  1
  8 10  1  0
 10 11  2  0
 10 12  1  0
  8 13  1  0
 13 14  1  0
 13 15  1  0
 13 16  1  0
 16 17  2  0
 17 18  1  0
 17 19  1  0
 19 20  1  0
 19 21  1  0
 21 22  2  0
 22 23  1  0
 22 24  1  0
 24 25  1  0
 24 26  2  0
 26 27  1  0
 26 28  1  0
 28 29  1  0
 28 30  2  0
  7 31  1  0
 31 32  2  0
  2 33  1  0
 33 34  2  0
 34 35  1  0
 34 36  1  0
 36 37  1  0
 36 38  2  0
 38 39  1  0
 39 40  1  0
 39 41  1  0
 39 42  1  0
 42 43  1  0
 42 44  1  0
 42 45  1  0
 45 46  1  0
 45 47  1  0
 45 48  1  0
 38 49  1  0
 49 50  1  0
 49 51  2  0
 51 52  1  0
 31  3  1  0
 51 33  1  0
 30 16  1  0
 30 21  1  0
M  CHG  1  12  -1
M  END
>  <UniqueID>  (73) 
72

>  <SMILES>  (73) 
CCCc1ccc(/C=C2\SC(=S)N([C@H](Cc3c[nH]c4ccccc34)C(=O)[O-])C2=O)cc1

>  <Energy>  (73) 
106.58459772557778

>  <Genealogy>  (73) 
CCCc1ccc(/C=C2\SC(=S)N([C@H](Cc3c[nH]c4ccccc34)C(=O)[O-])C2=O)cc1 (protonated)
CCCc1ccc(/C=C2\SC(=S)N([C@H](Cc3c[nH]c4ccccc34)C(=O)[O-])C2=O)cc1 (cis-trans isomerization)
CCCc1ccc(/C=C2\SC(=S)N([C@H](Cc3c[nH]c4ccccc34)C(=O)[O-])C2=O)cc1 (3D coordinates assigned)
CCCc1ccc(/C=C2\SC(=S)N([C@H](Cc3c[nH]c4ccccc34)C(=O)[O-])C2=O)cc1 (nonaromatic ring conformer: 106.58459772557778 kcal/mol)

$$$$
untitled_line_73
     RDKit          3D

 29 30  0  0  0  0  0  0  0  0999 V2000
    1.8923   -2.0454    1.5541 O   0  0  0  0  0  0  0  0  0  0  0  0
    2.6659   -1.0598    1.4211 C   0  0  0  0  0  0  0  0  0  0  0  0
    4.0320   -1.2403    1.5991 O   0  0  0  0  0  1  0  0  0  0  0  0
    2.1366    0.2987    1.0319 C   0  0  1  0  0  0  0  0  0  0  0  0
    1.7835    0.3757   -0.4681 C   0  0  0  0  0  0  0  0  0  0  0  0
    0.6216   -0.4963   -0.8621 C   0  0  0  0  0  0  0  0  0  0  0  0
    0.6843   -1.8239   -1.2765 C   0  0  0  0  0  0  0  0  0  0  0  0
   -0.5569   -2.3021   -1.5208 N   0  0  0  0  0  0  0  0  0  0  0  0
   -1.4027   -1.2891   -1.2650 C   0  0  0  0  0  0  0  0  0  0  0  0
   -2.7928   -1.3028   -1.3704 C   0  0  0  0  0  0  0  0  0  0  0  0
   -3.4884   -0.1229   -1.0495 C   0  0  0  0  0  0  0  0  0  0  0  0
   -2.7870    1.0315   -0.6366 C   0  0  0  0  0  0  0  0  0  0  0  0
   -1.3838    1.0167   -0.5402 C   0  0  0  0  0  0  0  0  0  0  0  0
   -0.7214   -0.1691   -0.8614 C   0  0  0  0  0  0  0  0  0  0  0  0
    0.9895    0.7489    1.9077 C   0  0  0  0  0  0  0  0  0  0  0  0
    0.1224   -0.0771    2.3040 O   0  0  0  0  0  0  0  0  0  0  0  0
    0.8440    2.1333    2.2370 N   0  0  0  0  0  0  0  0  0  0  0  0
   -0.2052    2.5573    2.9813 O   0  0  0  0  0  0  0  0  0  0  0  0
    2.9699    1.0171    1.1956 H   0  0  0  0  0  0  0  0  0  0  0  0
    2.6728    0.0836   -1.0683 H   0  0  0  0  0  0  0  0  0  0  0  0
    1.5542    1.4298   -0.7361 H   0  0  0  0  0  0  0  0  0  0  0  0
    1.5886   -2.4082   -1.3864 H   0  0  0  0  0  0  0  0  0  0  0  0
   -0.8039   -3.2651   -1.8402 H   0  0  0  0  0  0  0  0  0  0  0  0
   -3.3215   -2.1922   -1.6883 H   0  0  0  0  0  0  0  0  0  0  0  0
   -4.5681   -0.0995   -1.1202 H   0  0  0  0  0  0  0  0  0  0  0  0
   -3.3325    1.9339   -0.3932 H   0  0  0  0  0  0  0  0  0  0  0  0
   -0.8421    1.8990   -0.2261 H   0  0  0  0  0  0  0  0  0  0  0  0
    1.5276    2.8352    1.8749 H   0  0  0  0  0  0  0  0  0  0  0  0
    0.1212    2.5330    3.9169 H   0  0  0  0  0  0  0  0  0  0  0  0
  1  2  2  0
  2  3  1  0
  2  4  1  0
  4  5  1  0
  5  6  1  0
  6  7  2  0
  7  8  1  0
  8  9  1  0
  9 10  2  0
 10 11  1  0
 11 12  2  0
 12 13  1  0
 13 14  2  0
  4 15  1  0
 15 16  2  0
 15 17  1  0
 17 18  1  0
 14  6  1  0
 14  9  1  0
  4 19  1  6
  5 20  1  0
  5 21  1  0
  7 22  1  0
  8 23  1  0
 10 24  1  0
 11 25  1  0
 12 26  1  0
 13 27  1  0
 17 28  1  0
 18 29  1  0
M  CHG  1   3  -1
M  END
>  <UniqueID>  (74) 
73

>  <SMILES>  (74) 
O=C([O-])[C@@H](Cc1c[nH]c2ccccc12)C(=O)NO

>  <Energy>  (74) 
58.694653946983856

>  <Genealogy>  (74) 
O=C([O-])[C@@H](Cc1c[nH]c2ccccc12)C(=O)NO (protonated)
O=C([O-])[C@@H](Cc1c[nH]c2ccccc12)C(=O)NO (3D coordinates assigned)
O=C([O-])[C@@H](Cc1c[nH]c2ccccc12)C(=O)NO (optimized conformer: 58.694653946983856 kcal/mol)

$$$$
untitled_line_74
     RDKit          3D

 21 22  0  0  0  0  0  0  0  0999 V2000
   -3.3974    0.3104    1.8414 O   0  0  0  0  0  0  0  0  0  0  0  0
   -2.8321   -0.4824    1.0430 C   0  0  0  0  0  0  0  0  0  0  0  0
   -2.5710   -1.7881    1.4389 O   0  0  0  0  0  1  0  0  0  0  0  0
   -2.3961   -0.0077   -0.3051 C   0  0  0  0  0  0  0  0  0  0  0  0
   -1.0164    0.5699   -0.2252 C   0  0  0  0  0  0  0  0  0  0  0  0
   -0.6883    1.9054   -0.0108 C   0  0  0  0  0  0  0  0  0  0  0  0
    0.6536    2.0541    0.0730 N   0  0  0  0  0  0  0  0  0  0  0  0
    1.1740    0.8231   -0.0742 C   0  0  0  0  0  0  0  0  0  0  0  0
    2.5215    0.4661   -0.0425 C   0  0  0  0  0  0  0  0  0  0  0  0
    2.8451   -0.8940   -0.2004 C   0  0  0  0  0  0  0  0  0  0  0  0
    1.8264   -1.8560   -0.3808 C   0  0  0  0  0  0  0  0  0  0  0  0
    0.4746   -1.4669   -0.4066 C   0  0  0  0  0  0  0  0  0  0  0  0
    0.1854   -0.1107   -0.2526 C   0  0  0  0  0  0  0  0  0  0  0  0
   -2.4087   -0.8556   -1.0223 H   0  0  0  0  0  0  0  0  0  0  0  0
   -3.1046    0.7624   -0.6797 H   0  0  0  0  0  0  0  0  0  0  0  0
   -1.3935    2.7203    0.0890 H   0  0  0  0  0  0  0  0  0  0  0  0
    1.1749    2.9445    0.2339 H   0  0  0  0  0  0  0  0  0  0  0  0
    3.2946    1.2097    0.1017 H   0  0  0  0  0  0  0  0  0  0  0  0
    3.8813   -1.2054   -0.1807 H   0  0  0  0  0  0  0  0  0  0  0  0
    2.0872   -2.8997   -0.4985 H   0  0  0  0  0  0  0  0  0  0  0  0
   -0.3106   -2.1992   -0.5413 H   0  0  0  0  0  0  0  0  0  0  0  0
  1  2  2  0
  2  3  1  0
  2  4  1  0
  4  5  1  0
  5  6  2  0
  6  7  1  0
  7  8  1  0
  8  9  2  0
  9 10  1  0
 10 11  2  0
 11 12  1  0
 12 13  2  0
 13  5  1  0
 13  8  1  0
  4 14  1  0
  4 15  1  0
  6 16  1  0
  7 17  1  0
  9 18  1  0
 10 19  1  0
 11 20  1  0
 12 21  1  0
M  CHG  1   3  -1
M  END
>  <UniqueID>  (75) 
74

>  <SMILES>  (75) 
O=C([O-])Cc1c[nH]c2ccccc12

>  <Energy>  (75) 
52.16561959413079

>  <Genealogy>  (75) 
O=C([O-])Cc1c[nH]c2ccccc12 (protonated)
O=C([O-])Cc1c[nH]c2ccccc12 (3D coordinates assigned)
O=C([O-])Cc1c[nH]c2ccccc12 (optimized conformer: 52.16561959413079 kcal/mol)

$$$$
untitled_line_75
     RDKit          3D

 38 40  0  0  0  0  0  0  0  0999 V2000
   -1.0738   -1.5227   -1.9935 O   0  0  0  0  0  0  0  0  0  0  0  0
   -0.4956   -1.5627   -0.8728 C   0  0  0  0  0  0  0  0  0  0  0  0
    0.9384   -1.4705   -0.8094 N   0  0  0  0  0  0  0  0  0  0  0  0
    1.7349   -0.8840   -1.8925 C   0  0  1  0  0  0  0  0  0  0  0  0
    2.1173    0.5657   -1.5494 C   0  0  0  0  0  0  0  0  0  0  0  0
    0.8982    1.4185   -1.3439 C   0  0  0  0  0  0  0  0  0  0  0  0
    0.3427    1.7866   -0.1218 C   0  0  0  0  0  0  0  0  0  0  0  0
   -0.8123    2.4638   -0.3127 N   0  0  0  0  0  0  0  0  0  0  0  0
   -0.9950    2.5186   -1.6433 C   0  0  0  0  0  0  0  0  0  0  0  0
   -2.0653    3.0950   -2.3260 C   0  0  0  0  0  0  0  0  0  0  0  0
   -2.0690    3.0147   -3.7306 C   0  0  0  0  0  0  0  0  0  0  0  0
   -1.0170    2.3643   -4.4133 C   0  0  0  0  0  0  0  0  0  0  0  0
    0.0488    1.7888   -3.6979 C   0  0  0  0  0  0  0  0  0  0  0  0
    0.0271    1.8891   -2.3066 C   0  0  0  0  0  0  0  0  0  0  0  0
    2.9713   -1.7080   -2.1133 C   0  0  0  0  0  0  0  0  0  0  0  0
    3.1985   -2.2188   -3.2417 O   0  0  0  0  0  0  0  0  0  0  0  0
    3.8760   -1.9078   -1.0770 O   0  0  0  0  0  1  0  0  0  0  0  0
   -1.3106   -1.7112    0.3572 C   0  0  0  0  0  0  0  0  0  0  0  0
   -2.6059   -2.2572    0.2808 C   0  0  0  0  0  0  0  0  0  0  0  0
   -3.3902   -2.3867    1.4311 C   0  0  0  0  0  0  0  0  0  0  0  0
   -2.8959   -1.9657    2.6671 C   0  0  0  0  0  0  0  0  0  0  0  0
   -1.6176   -1.4108    2.7547 C   0  0  0  0  0  0  0  0  0  0  0  0
   -0.8279   -1.2804    1.6082 C   0  0  0  0  0  0  0  0  0  0  0  0
    1.4257   -1.7116    0.0826 H   0  0  0  0  0  0  0  0  0  0  0  0
    1.1518   -0.8803   -2.8401 H   0  0  0  0  0  0  0  0  0  0  0  0
    2.7217    0.9986   -2.3760 H   0  0  0  0  0  0  0  0  0  0  0  0
    2.7389    0.5877   -0.6273 H   0  0  0  0  0  0  0  0  0  0  0  0
    0.7509    1.5528    0.8526 H   0  0  0  0  0  0  0  0  0  0  0  0
   -1.4416    2.8467    0.4274 H   0  0  0  0  0  0  0  0  0  0  0  0
   -2.8702    3.5851   -1.7937 H   0  0  0  0  0  0  0  0  0  0  0  0
   -2.8849    3.4516   -4.2915 H   0  0  0  0  0  0  0  0  0  0  0  0
   -1.0319    2.3063   -5.4938 H   0  0  0  0  0  0  0  0  0  0  0  0
    0.8563    1.2864   -4.2141 H   0  0  0  0  0  0  0  0  0  0  0  0
   -3.0092   -2.5921   -0.6668 H   0  0  0  0  0  0  0  0  0  0  0  0
   -4.3828   -2.8130    1.3633 H   0  0  0  0  0  0  0  0  0  0  0  0
   -3.5053   -2.0647    3.5561 H   0  0  0  0  0  0  0  0  0  0  0  0
   -1.2400   -1.0745    3.7118 H   0  0  0  0  0  0  0  0  0  0  0  0
    0.1457   -0.8202    1.7046 H   0  0  0  0  0  0  0  0  0  0  0  0
  1  2  2  0
  2  3  1  0
  3  4  1  0
  4  5  1  0
  5  6  1  0
  6  7  2  0
  7  8  1  0
  8  9  1  0
  9 10  2  0
 10 11  1  0
 11 12  2  0
 12 13  1  0
 13 14  2  0
  4 15  1  0
 15 16  2  0
 15 17  1  0
  2 18  1  0
 18 19  2  0
 19 20  1  0
 20 21  2  0
 21 22  1  0
 22 23  2  0
 14  6  1  0
 23 18  1  0
 14  9  1  0
  3 24  1  0
  4 25  1  6
  5 26  1  0
  5 27  1  0
  7 28  1  0
  8 29  1  0
 10 30  1  0
 11 31  1  0
 12 32  1  0
 13 33  1  0
 19 34  1  0
 20 35  1  0
 21 36  1  0
 22 37  1  0
 23 38  1  0
M  CHG  1  17  -1
M  END
>  <UniqueID>  (76) 
75

>  <SMILES>  (76) 
O=C(N[C@@H](Cc1c[nH]c2ccccc12)C(=O)[O-])c1ccccc1

>  <Energy>  (76) 
70.17055659102223

>  <Genealogy>  (76) 
O=C(NC(Cc1c[nH]c2ccccc12)C(=O)[O-])c1ccccc1 (protonated)
O=C(N[C@@H](Cc1c[nH]c2ccccc12)C(=O)[O-])c1ccccc1 (chirality)
O=C(N[C@@H](Cc1c[nH]c2ccccc12)C(=O)[O-])c1ccccc1 (3D coordinates assigned)
O=C(N[C@@H](Cc1c[nH]c2ccccc12)C(=O)[O-])c1ccccc1 (optimized conformer: 70.17055659102223 kcal/mol)

$$$$
untitled_line_76
     RDKit          3D

 39 42  0  0  0  0  0  0  0  0999 V2000
    0.8333   -0.0717    3.3001 O   0  0  0  0  0  0  0  0  0  0  0  0
    1.7184   -0.3776    2.4569 C   0  0  0  0  0  0  0  0  0  0  0  0
    2.8488   -1.0682    2.8757 O   0  0  0  0  0  1  0  0  0  0  0  0
    1.5853    0.0394    1.0064 C   0  0  2  0  0  0  0  0  0  0  0  0
    2.0206    1.5260    0.8512 C   0  0  0  0  0  0  0  0  0  0  0  0
    1.2751    2.4918    1.7391 C   0  0  0  0  0  0  0  0  0  0  0  0
    1.6190    2.8316    3.0460 C   0  0  0  0  0  0  0  0  0  0  0  0
    0.7323    3.7137    3.5580 N   0  0  0  0  0  0  0  0  0  0  0  0
   -0.1658    3.9433    2.5858 C   0  0  0  0  0  0  0  0  0  0  0  0
   -1.2668    4.7968    2.6425 C   0  0  0  0  0  0  0  0  0  0  0  0
   -2.0746    4.9055    1.4968 C   0  0  0  0  0  0  0  0  0  0  0  0
   -1.7634    4.1724    0.3312 C   0  0  0  0  0  0  0  0  0  0  0  0
   -0.6447    3.3205    0.3023 C   0  0  0  0  0  0  0  0  0  0  0  0
    0.1324    3.2207    1.4570 C   0  0  0  0  0  0  0  0  0  0  0  0
    0.2267   -0.2279    0.4457 N   0  0  0  0  0  4  0  0  0  0  0  0
   -0.2336   -1.5773    0.7241 C   0  0  0  0  0  0  0  0  0  0  0  0
   -0.6080   -1.9643    1.8639 O   0  0  0  0  0  0  0  0  0  0  0  0
   -0.3452   -2.3960   -0.4708 C   0  0  0  0  0  0  0  0  0  0  0  0
   -0.7252   -3.7278   -0.6362 C   0  0  0  0  0  0  0  0  0  0  0  0
   -0.7786   -4.2399   -1.9451 C   0  0  0  0  0  0  0  0  0  0  0  0
   -0.4656   -3.4135   -3.0462 C   0  0  0  0  0  0  0  0  0  0  0  0
   -0.0982   -2.0709   -2.8437 C   0  0  0  0  0  0  0  0  0  0  0  0
   -0.0459   -1.5985   -1.5323 C   0  0  0  0  0  0  0  0  0  0  0  0
    0.2598   -0.2790   -1.0055 C   0  0  0  0  0  0  0  0  0  0  0  0
    0.4742    0.7220   -1.7387 O   0  0  0  0  0  0  0  0  0  0  0  0
    2.3299   -0.5692    0.4404 H   0  0  0  0  0  0  0  0  0  0  0  0
    3.1016    1.5979    1.1022 H   0  0  0  0  0  0  0  0  0  0  0  0
    1.9447    1.8612   -0.2004 H   0  0  0  0  0  0  0  0  0  0  0  0
    2.4705    2.4478    3.5930 H   0  0  0  0  0  0  0  0  0  0  0  0
    0.7488    4.1328    4.5143 H   0  0  0  0  0  0  0  0  0  0  0  0
   -1.4922    5.3610    3.5382 H   0  0  0  0  0  0  0  0  0  0  0  0
   -2.9367    5.5596    1.5069 H   0  0  0  0  0  0  0  0  0  0  0  0
   -2.3871    4.2699   -0.5478 H   0  0  0  0  0  0  0  0  0  0  0  0
   -0.3979    2.7738   -0.5937 H   0  0  0  0  0  0  0  0  0  0  0  0
   -0.4877    0.4626    0.7723 H   0  0  0  0  0  0  0  0  0  0  0  0
   -0.9732   -4.3484    0.2150 H   0  0  0  0  0  0  0  0  0  0  0  0
   -1.0662   -5.2702   -2.1090 H   0  0  0  0  0  0  0  0  0  0  0  0
   -0.5138   -3.8130   -4.0508 H   0  0  0  0  0  0  0  0  0  0  0  0
    0.1338   -1.4250   -3.6804 H   0  0  0  0  0  0  0  0  0  0  0  0
  1  2  2  0
  2  3  1  0
  2  4  1  0
  4  5  1  0
  5  6  1  0
  6  7  2  0
  7  8  1  0
  8  9  1  0
  9 10  2  0
 10 11  1  0
 11 12  2  0
 12 13  1  0
 13 14  2  0
  4 15  1  0
 15 16  1  0
 16 17  2  0
 16 18  1  0
 18 19  2  0
 19 20  1  0
 20 21  2  0
 21 22  1  0
 22 23  2  0
 23 24  1  0
 24 25  2  0
 14  6  1  0
 24 15  1  0
 14  9  1  0
 23 18  1  0
  4 26  1  6
  5 27  1  0
  5 28  1  0
  7 29  1  0
  8 30  1  0
 10 31  1  0
 11 32  1  0
 12 33  1  0
 13 34  1  0
 15 35  1  0
 19 36  1  0
 20 37  1  0
 21 38  1  0
 22 39  1  0
M  CHG  2   3  -1  15   1
M  END
>  <UniqueID>  (77) 
76

>  <SMILES>  (77) 
O=C([O-])[C@H](Cc1c[nH]c2ccccc12)[NH+]1C(=O)c2ccccc2C1=O

>  <Energy>  (77) 
107.43475543167838

>  <Genealogy>  (77) 
O=C([O-])C(Cc1c[nH]c2ccccc12)[NH+]1C(=O)c2ccccc2C1=O (protonated)
O=C([O-])[C@H](Cc1c[nH]c2ccccc12)[NH+]1C(=O)c2ccccc2C1=O (chirality)
O=C([O-])[C@H](Cc1c[nH]c2ccccc12)[NH+]1C(=O)c2ccccc2C1=O (3D coordinates assigned)
O=C([O-])[C@H](Cc1c[nH]c2ccccc12)[NH+]1C(=O)c2ccccc2C1=O (nonaromatic ring conformer: 107.43475543167838 kcal/mol)

$$$$
untitled_line_77
     RDKit          3D

 28 29  0  0  0  0  0  0  0  0999 V2000
    2.0809   -3.3141   -0.0816 O   0  0  0  0  0  0  0  0  0  0  0  0
    1.8458   -2.5285   -1.0383 C   0  0  0  0  0  0  0  0  0  0  0  0
    2.5105   -2.7066   -2.2449 O   0  0  0  0  0  1  0  0  0  0  0  0
    0.9032   -1.3674   -0.8737 C   0  0  1  0  0  0  0  0  0  0  0  0
   -0.2715   -1.7084    0.0665 C   0  0  0  0  0  0  0  0  0  0  0  0
   -1.2706   -0.5815    0.1318 C   0  0  0  0  0  0  0  0  0  0  0  0
   -2.2050   -0.4048   -0.9024 C   0  0  0  0  0  0  0  0  0  0  0  0
   -3.1025    0.6668   -0.8654 C   0  0  0  0  0  0  0  0  0  0  0  0
   -3.0698    1.5715    0.1992 C   0  0  0  0  0  0  0  0  0  0  0  0
   -2.1391    1.4066    1.2286 C   0  0  0  0  0  0  0  0  0  0  0  0
   -1.2411    0.3356    1.1965 C   0  0  0  0  0  0  0  0  0  0  0  0
    1.6378   -0.1884   -0.4007 N   0  0  0  0  0  0  0  0  0  0  0  0
    1.4274    1.1585   -0.8119 C   0  0  0  0  0  0  0  0  0  0  0  0
    0.7779    1.4888   -1.8389 O   0  0  0  0  0  0  0  0  0  0  0  0
    2.0329    2.0947    0.1310 C   0  0  0  0  0  0  0  0  0  0  0  0
    2.5797    1.3850    1.1128 C   0  0  0  0  0  0  0  0  0  0  0  0
    2.3406   -0.0276    0.8293 C   0  0  0  0  0  0  0  0  0  0  0  0
    2.6803   -0.9790    1.5806 O   0  0  0  0  0  0  0  0  0  0  0  0
    0.4843   -1.1499   -1.8813 H   0  0  0  0  0  0  0  0  0  0  0  0
    0.1073   -1.9407    1.0860 H   0  0  0  0  0  0  0  0  0  0  0  0
   -0.7846   -2.6238   -0.3028 H   0  0  0  0  0  0  0  0  0  0  0  0
   -2.2331   -1.0929   -1.7382 H   0  0  0  0  0  0  0  0  0  0  0  0
   -3.8205    0.7983   -1.6645 H   0  0  0  0  0  0  0  0  0  0  0  0
   -3.7634    2.4020    0.2250 H   0  0  0  0  0  0  0  0  0  0  0  0
   -2.1109    2.1111    2.0497 H   0  0  0  0  0  0  0  0  0  0  0  0
   -0.5180    0.2270    1.9952 H   0  0  0  0  0  0  0  0  0  0  0  0
    2.0286    3.1744    0.0625 H   0  0  0  0  0  0  0  0  0  0  0  0
    3.0929    1.7934    1.9732 H   0  0  0  0  0  0  0  0  0  0  0  0
  1  2  2  0
  2  3  1  0
  2  4  1  0
  4  5  1  0
  5  6  1  0
  6  7  2  0
  7  8  1  0
  8  9  2  0
  9 10  1  0
 10 11  2  0
  4 12  1  0
 12 13  1  0
 13 14  2  0
 13 15  1  0
 15 16  2  0
 16 17  1  0
 17 18  2  0
 11  6  1  0
 17 12  1  0
  4 19  1  6
  5 20  1  0
  5 21  1  0
  7 22  1  0
  8 23  1  0
  9 24  1  0
 10 25  1  0
 11 26  1  0
 15 27  1  0
 16 28  1  0
M  CHG  1   3  -1
M  END
>  <UniqueID>  (78) 
77

>  <SMILES>  (78) 
O=C([O-])[C@@H](Cc1ccccc1)N1C(=O)C=CC1=O

>  <Energy>  (78) 
50.69287172116675

>  <Genealogy>  (78) 
O=C([O-])C(Cc1ccccc1)N1C(=O)C=CC1=O (protonated)
O=C([O-])[C@@H](Cc1ccccc1)N1C(=O)C=CC1=O (chirality)
O=C([O-])[C@@H](Cc1ccccc1)N1C(=O)C=CC1=O (3D coordinates assigned)
O=C([O-])[C@@H](Cc1ccccc1)N1C(=O)C=CC1=O (nonaromatic ring conformer: 50.69287172116675 kcal/mol)

$$$$
untitled_line_78
     RDKit          3D

 39 42  0  0  0  0  0  0  0  0999 V2000
   -3.6933   -0.9272   -0.7491 O   0  0  0  0  0  0  0  0  0  0  0  0
   -2.6180   -0.2743   -0.6936 C   0  0  0  0  0  0  0  0  0  0  0  0
   -2.4242    0.6284    0.3451 O   0  0  0  0  0  1  0  0  0  0  0  0
   -1.5808   -0.4405   -1.7801 C   0  0  2  0  0  0  0  0  0  0  0  0
   -0.1379   -0.4213   -1.2005 C   0  0  0  0  0  0  0  0  0  0  0  0
    0.1030   -1.5826   -0.2764 C   0  0  0  0  0  0  0  0  0  0  0  0
    0.2289   -2.9177   -0.6497 C   0  0  0  0  0  0  0  0  0  0  0  0
    0.3993   -3.6995    0.4403 N   0  0  0  0  0  0  0  0  0  0  0  0
    0.3794   -2.8711    1.4987 C   0  0  0  0  0  0  0  0  0  0  0  0
    0.5128   -3.2172    2.8427 C   0  0  0  0  0  0  0  0  0  0  0  0
    0.4593   -2.1847    3.7963 C   0  0  0  0  0  0  0  0  0  0  0  0
    0.2764   -0.8445    3.3900 C   0  0  0  0  0  0  0  0  0  0  0  0
    0.1446   -0.5241    2.0267 C   0  0  0  0  0  0  0  0  0  0  0  0
    0.1994   -1.5695    1.1030 C   0  0  0  0  0  0  0  0  0  0  0  0
   -1.8003    0.5559   -2.8638 N   0  0  0  0  0  4  0  0  0  0  0  0
   -1.3430    1.8892   -2.5363 C   0  0  0  0  0  0  0  0  0  0  0  0
   -1.8555    2.5976   -1.6290 O   0  0  0  0  0  0  0  0  0  0  0  0
   -0.2830    2.3435   -3.4233 C   0  0  0  0  0  0  0  0  0  0  0  0
    0.4389    3.5360   -3.4506 C   0  0  0  0  0  0  0  0  0  0  0  0
    1.4129    3.6935   -4.4532 C   0  0  0  0  0  0  0  0  0  0  0  0
    1.6371    2.6677   -5.3972 C   0  0  0  0  0  0  0  0  0  0  0  0
    0.8885    1.4780   -5.3449 C   0  0  0  0  0  0  0  0  0  0  0  0
   -0.0670    1.3517   -4.3375 C   0  0  0  0  0  0  0  0  0  0  0  0
   -0.9884    0.2699   -4.0250 C   0  0  0  0  0  0  0  0  0  0  0  0
   -1.0982   -0.7856   -4.7054 O   0  0  0  0  0  0  0  0  0  0  0  0
   -1.7423   -1.4556   -2.2132 H   0  0  0  0  0  0  0  0  0  0  0  0
    0.6019   -0.4931   -2.0254 H   0  0  0  0  0  0  0  0  0  0  0  0
    0.0603    0.5334   -0.6698 H   0  0  0  0  0  0  0  0  0  0  0  0
    0.1903   -3.2951   -1.6633 H   0  0  0  0  0  0  0  0  0  0  0  0
    0.5170   -4.7370    0.4529 H   0  0  0  0  0  0  0  0  0  0  0  0
    0.6527   -4.2472    3.1443 H   0  0  0  0  0  0  0  0  0  0  0  0
    0.5594   -2.4190    4.8481 H   0  0  0  0  0  0  0  0  0  0  0  0
    0.2382   -0.0582    4.1326 H   0  0  0  0  0  0  0  0  0  0  0  0
    0.0081    0.5023    1.7140 H   0  0  0  0  0  0  0  0  0  0  0  0
   -2.8056    0.5892   -3.1558 H   0  0  0  0  0  0  0  0  0  0  0  0
    0.2570    4.3164   -2.7234 H   0  0  0  0  0  0  0  0  0  0  0  0
    1.9922    4.6063   -4.5018 H   0  0  0  0  0  0  0  0  0  0  0  0
    2.3877    2.7978   -6.1659 H   0  0  0  0  0  0  0  0  0  0  0  0
    1.0504    0.6861   -6.0644 H   0  0  0  0  0  0  0  0  0  0  0  0
  1  2  2  0
  2  3  1  0
  2  4  1  0
  4  5  1  0
  5  6  1  0
  6  7  2  0
  7  8  1  0
  8  9  1  0
  9 10  2  0
 10 11  1  0
 11 12  2  0
 12 13  1  0
 13 14  2  0
  4 15  1  0
 15 16  1  0
 16 17  2  0
 16 18  1  0
 18 19  2  0
 19 20  1  0
 20 21  2  0
 21 22  1  0
 22 23  2  0
 23 24  1  0
 24 25  2  0
 14  6  1  0
 24 15  1  0
 14  9  1  0
 23 18  1  0
  4 26  1  6
  5 27  1  0
  5 28  1  0
  7 29  1  0
  8 30  1  0
 10 31  1  0
 11 32  1  0
 12 33  1  0
 13 34  1  0
 15 35  1  0
 19 36  1  0
 20 37  1  0
 21 38  1  0
 22 39  1  0
M  CHG  2   3  -1  15   1
M  END
>  <UniqueID>  (79) 
78

>  <SMILES>  (79) 
O=C([O-])[C@H](Cc1c[nH]c2ccccc12)[NH+]1C(=O)c2ccccc2C1=O

>  <Energy>  (79) 
104.04586371598779

>  <Genealogy>  (79) 
O=C([O-])[C@H](Cc1c[nH]c2ccccc12)[NH+]1C(=O)c2ccccc2C1=O (protonated)
O=C([O-])[C@H](Cc1c[nH]c2ccccc12)[NH+]1C(=O)c2ccccc2C1=O (3D coordinates assigned)
O=C([O-])[C@H](Cc1c[nH]c2ccccc12)[NH+]1C(=O)c2ccccc2C1=O (nonaromatic ring conformer: 104.04586371598779 kcal/mol)

$$$$
untitled_line_79
     RDKit          3D

 56 62  0  0  0  0  0  0  0  0999 V2000
    1.0914   -3.2980    3.4152 O   0  0  0  0  0  0  0  0  0  0  0  0
    1.2260   -2.0645    3.2008 C   0  0  0  0  0  0  0  0  0  0  0  0
    2.4295   -1.4455    3.5190 O   0  0  0  0  0  1  0  0  0  0  0  0
    0.1115   -1.2933    2.5466 C   0  0  1  0  0  0  0  0  0  0  0  0
    0.0482    0.1588    3.0575 C   0  0  0  0  0  0  0  0  0  0  0  0
   -1.1013    0.9316    2.4658 C   0  0  0  0  0  0  0  0  0  0  0  0
   -2.4248    0.5068    2.3475 C   0  0  0  0  0  0  0  0  0  0  0  0
   -3.2140    1.5207    1.9277 N   0  0  0  0  0  0  0  0  0  0  0  0
   -2.4102    2.5893    1.8020 C   0  0  0  0  0  0  0  0  0  0  0  0
   -2.7796    3.8822    1.4334 C   0  0  0  0  0  0  0  0  0  0  0  0
   -1.7758    4.8662    1.3915 C   0  0  0  0  0  0  0  0  0  0  0  0
   -0.4414    4.5406    1.7191 C   0  0  0  0  0  0  0  0  0  0  0  0
   -0.0988    3.2292    2.0953 C   0  0  0  0  0  0  0  0  0  0  0  0
   -1.1146    2.2714    2.1222 C   0  0  0  0  0  0  0  0  0  0  0  0
    0.2583   -1.3401    1.0854 N   0  0  0  0  0  0  0  0  0  0  0  0
    1.3770   -0.8956    0.3239 C   0  0  0  0  0  0  0  0  0  0  0  0
    2.3092   -0.1998    0.8070 O   0  0  0  0  0  0  0  0  0  0  0  0
    1.3522   -1.3695   -1.0969 C   0  0  2  0  0  0  0  0  0  0  0  0
    1.3201   -0.2008   -2.1370 C   0  0  0  0  0  0  0  0  0  0  0  0
    1.0783   -0.8761   -3.4793 C   0  0  0  0  0  0  0  0  0  0  0  0
    1.9329   -0.8040   -4.5818 C   0  0  0  0  0  0  0  0  0  0  0  0
    1.5892   -1.4850   -5.7578 C   0  0  0  0  0  0  0  0  0  0  0  0
    0.4021   -2.2330   -5.8266 C   0  0  0  0  0  0  0  0  0  0  0  0
   -0.4553   -2.3088   -4.7204 C   0  0  0  0  0  0  0  0  0  0  0  0
   -0.1159   -1.6283   -3.5487 C   0  0  0  0  0  0  0  0  0  0  0  0
   -0.9371   -1.6254   -2.2673 C   0  0  0  0  0  0  0  0  0  0  0  0
   -1.1377   -0.1525   -1.9354 C   0  0  0  0  0  0  0  0  0  0  0  0
   -2.3756    0.4660   -1.7450 C   0  0  0  0  0  0  0  0  0  0  0  0
   -2.4190    1.8457   -1.5045 C   0  0  0  0  0  0  0  0  0  0  0  0
   -1.2329    2.5957   -1.4489 C   0  0  0  0  0  0  0  0  0  0  0  0
    0.0097    1.9733   -1.6232 C   0  0  0  0  0  0  0  0  0  0  0  0
    0.0530    0.5995   -1.8701 C   0  0  0  0  0  0  0  0  0  0  0  0
    0.0177   -2.2172   -1.1783 C   0  0  2  0  0  0  0  0  0  0  0  0
   -0.5398   -2.1239    0.2081 C   0  0  0  0  0  0  0  0  0  0  0  0
   -1.5998   -2.6994    0.5725 O   0  0  0  0  0  0  0  0  0  0  0  0
   -0.8396   -1.7901    2.8381 H   0  0  0  0  0  0  0  0  0  0  0  0
    1.0016    0.6787    2.8330 H   0  0  0  0  0  0  0  0  0  0  0  0
   -0.0745    0.1533    4.1622 H   0  0  0  0  0  0  0  0  0  0  0  0
   -2.7983   -0.4801    2.5851 H   0  0  0  0  0  0  0  0  0  0  0  0
   -4.2449    1.4842    1.7656 H   0  0  0  0  0  0  0  0  0  0  0  0
   -3.8057    4.1223    1.1869 H   0  0  0  0  0  0  0  0  0  0  0  0
   -2.0278    5.8790    1.1057 H   0  0  0  0  0  0  0  0  0  0  0  0
    0.3228    5.3059    1.6835 H   0  0  0  0  0  0  0  0  0  0  0  0
    0.9219    2.9807    2.3522 H   0  0  0  0  0  0  0  0  0  0  0  0
    2.2349   -2.0217   -1.2794 H   0  0  0  0  0  0  0  0  0  0  0  0
    2.2434    0.4181   -2.1182 H   0  0  0  0  0  0  0  0  0  0  0  0
    2.8497   -0.2309   -4.5318 H   0  0  0  0  0  0  0  0  0  0  0  0
    2.2438   -1.4352   -6.6182 H   0  0  0  0  0  0  0  0  0  0  0  0
    0.1484   -2.7557   -6.7397 H   0  0  0  0  0  0  0  0  0  0  0  0
   -1.3675   -2.8887   -4.7763 H   0  0  0  0  0  0  0  0  0  0  0  0
   -1.8907   -2.1899   -2.3574 H   0  0  0  0  0  0  0  0  0  0  0  0
   -3.2919   -0.1076   -1.7952 H   0  0  0  0  0  0  0  0  0  0  0  0
   -3.3727    2.3368   -1.3618 H   0  0  0  0  0  0  0  0  0  0  0  0
   -1.2783    3.6616   -1.2705 H   0  0  0  0  0  0  0  0  0  0  0  0
    0.9213    2.5550   -1.5799 H   0  0  0  0  0  0  0  0  0  0  0  0
    0.2494   -3.2810   -1.4075 H   0  0  0  0  0  0  0  0  0  0  0  0
  1  2  2  0
  2  3  1  0
  2  4  1  0
  4  5  1  0
  5  6  1  0
  6  7  2  0
  7  8  1  0
  8  9  1  0
  9 10  2  0
 10 11  1  0
 11 12  2  0
 12 13  1  0
 13 14  2  0
  4 15  1  0
 15 16  1  0
 16 17  2  0
 16 18  1  0
 18 19  1  0
 19 20  1  0
 20 21  2  0
 21 22  1  0
 22 23  2  0
 23 24  1  0
 24 25  2  0
 25 26  1  0
 26 27  1  0
 27 28  2  0
 28 29  1  0
 29 30  2  0
 30 31  1  0
 31 32  2  0
 26 33  1  0
 33 34  1  0
 34 35  2  0
 14  6  1  0
 34 15  1  0
 14  9  1  0
 33 18  1  0
 32 19  1  0
 25 20  1  0
 32 27  1  0
  4 36  1  6
  5 37  1  0
  5 38  1  0
  7 39  1  0
  8 40  1  0
 10 41  1  0
 11 42  1  0
 12 43  1  0
 13 44  1  0
 18 45  1  6
 19 46  1  0
 21 47  1  0
 22 48  1  0
 23 49  1  0
 24 50  1  0
 26 51  1  0
 28 52  1  0
 29 53  1  0
 30 54  1  0
 31 55  1  0
 33 56  1  6
M  CHG  1   3  -1
M  END
>  <UniqueID>  (80) 
79

>  <SMILES>  (80) 
O=C([O-])[C@@H](Cc1c[nH]c2ccccc12)N1C(=O)[C@H]2C3c4ccccc4C(c4ccccc43)[C@H]2C1=O

>  <Energy>  (80) 
133.4237497137575

>  <Genealogy>  (80) 
O=C([O-])C(Cc1c[nH]c2ccccc12)N1C(=O)C2C3c4ccccc4C(c4ccccc43)[C@@H]2C1=O (protonated)
O=C([O-])[C@@H](Cc1c[nH]c2ccccc12)N1C(=O)[C@H]2C3c4ccccc4C(c4ccccc43)[C@H]2C1=O (chirality)
O=C([O-])[C@@H](Cc1c[nH]c2ccccc12)N1C(=O)[C@H]2C3c4ccccc4C(c4ccccc43)[C@H]2C1=O (3D coordinates assigned)
O=C([O-])[C@@H](Cc1c[nH]c2ccccc12)N1C(=O)[C@H]2C3c4ccccc4C(c4ccccc43)[C@H]2C1=O (nonaromatic ring conformer: 133.4237497137575 kcal/mol)

$$$$
untitled_line_80
     RDKit          3D

 27 28  0  0  0  0  0  0  0  0999 V2000
    1.0355   -2.5320    1.1301 N   0  0  0  0  0  4  0  0  0  0  0  0
    0.4479   -1.6501    0.1143 C   0  0  1  0  0  0  0  0  0  0  0  0
   -0.9149   -1.1090    0.5921 C   0  0  0  0  0  0  0  0  0  0  0  0
   -1.6276   -0.3611   -0.4992 C   0  0  0  0  0  0  0  0  0  0  0  0
   -2.3541   -0.9233   -1.5448 C   0  0  0  0  0  0  0  0  0  0  0  0
   -2.7967    0.0402   -2.3843 N   0  0  0  0  0  0  0  0  0  0  0  0
   -2.3473    1.2043   -1.8842 C   0  0  0  0  0  0  0  0  0  0  0  0
   -2.5343    2.4796   -2.4156 C   0  0  0  0  0  0  0  0  0  0  0  0
   -1.9567    3.5669   -1.7349 C   0  0  0  0  0  0  0  0  0  0  0  0
   -1.2115    3.3573   -0.5535 C   0  0  0  0  0  0  0  0  0  0  0  0
   -1.0378    2.0589   -0.0408 C   0  0  0  0  0  0  0  0  0  0  0  0
   -1.6252    1.0006   -0.7356 C   0  0  0  0  0  0  0  0  0  0  0  0
    1.3933   -0.5223   -0.2118 C   0  0  0  0  0  0  0  0  0  0  0  0
    1.8924    0.1806    0.7068 O   0  0  0  0  0  0  0  0  0  0  0  0
    1.6911   -0.2292   -1.5367 O   0  0  0  0  0  1  0  0  0  0  0  0
    0.4121   -3.3576    1.2848 H   0  0  0  0  0  0  0  0  0  0  0  0
    1.9653   -2.8822    0.8020 H   0  0  0  0  0  0  0  0  0  0  0  0
    1.1587   -2.0233    2.0363 H   0  0  0  0  0  0  0  0  0  0  0  0
    0.2841   -2.2482   -0.8113 H   0  0  0  0  0  0  0  0  0  0  0  0
   -0.7807   -0.4537    1.4796 H   0  0  0  0  0  0  0  0  0  0  0  0
   -1.5580   -1.9592    0.9067 H   0  0  0  0  0  0  0  0  0  0  0  0
   -2.5365   -1.9803   -1.6889 H   0  0  0  0  0  0  0  0  0  0  0  0
   -3.3607   -0.0979   -3.2522 H   0  0  0  0  0  0  0  0  0  0  0  0
   -3.1029    2.6297   -3.3242 H   0  0  0  0  0  0  0  0  0  0  0  0
   -2.0825    4.5702   -2.1206 H   0  0  0  0  0  0  0  0  0  0  0  0
   -0.7700    4.2011   -0.0395 H   0  0  0  0  0  0  0  0  0  0  0  0
   -0.4660    1.8938    0.8626 H   0  0  0  0  0  0  0  0  0  0  0  0
  1  2  1  0
  2  3  1  0
  3  4  1  0
  4  5  2  0
  5  6  1  0
  6  7  1  0
  7  8  2  0
  8  9  1  0
  9 10  2  0
 10 11  1  0
 11 12  2  0
  2 13  1  0
 13 14  2  0
 13 15  1  0
 12  4  1  0
 12  7  1  0
  1 16  1  0
  1 17  1  0
  1 18  1  0
  2 19  1  6
  3 20  1  0
  3 21  1  0
  5 22  1  0
  6 23  1  0
  8 24  1  0
  9 25  1  0
 10 26  1  0
 11 27  1  0
M  CHG  2   1   1  15  -1
M  END
>  <UniqueID>  (81) 
80

>  <SMILES>  (81) 
[NH3+][C@@H](Cc1c[nH]c2ccccc12)C(=O)[O-]

>  <Energy>  (81) 
56.72910659455077

>  <Genealogy>  (81) 
[NH3+][C@@H](Cc1c[nH]c2ccccc12)C(=O)[O-] (protonated)
[NH3+][C@@H](Cc1c[nH]c2ccccc12)C(=O)[O-] (3D coordinates assigned)
[NH3+][C@@H](Cc1c[nH]c2ccccc12)C(=O)[O-] (optimized conformer: 56.72910659455077 kcal/mol)

$$$$
