EMPTY MOLECULE DESCRIBING GYPSUM-DL PARAMETERS
     RDKit          2D

  0  0  0  0  0  0  0  0  0  0999 V2000
M  END
>  <source>  (1) 
/Users/jake/Desktop/galene/data/lig/rg-108_analogs.smi

>  <output_folder>  (1) 
data/lig

>  <separate_output_files>  (1) 
False

>  <add_pdb_output>  (1) 
False

>  <add_html_output>  (1) 
False

>  <num_processors>  (1) 
-1

>  <start_time>  (1) 
0

>  <end_time>  (1) 
0

>  <run_time>  (1) 
0

>  <min_ph>  (1) 
-6.0

>  <max_ph>  (1) 
-8.0

>  <pka_precision>  (1) 
1.0

>  <thoroughness>  (1) 
3

>  <max_variants_per_compound>  (1) 
1

>  <second_embed>  (1) 
False

>  <2d_output_only>  (1) 
False

>  <skip_optimize_geometry>  (1) 
False

>  <skip_alternate_ring_conformations>  (1) 
False

>  <skip_adding_hydrogen>  (1) 
False

>  <skip_making_tautomers>  (1) 
False

>  <skip_enumerate_chiral_mol>  (1) 
False

>  <skip_enumerate_double_bonds>  (1) 
False

>  <let_tautomers_change_chirality>  (1) 
False

>  <use_durrant_lab_filters>  (1) 
False

>  <job_manager>  (1) 
multiprocessing

>  <cache_prerun>  (1) 
False

>  <test>  (1) 
False

>  <Parallelizer>  (1) 
<gypsum_dl.Parallelizer.Parallelizer object at 0x81f8cfe10>

$$$$
untitled_line_1
     RDKit          3D

 39 41  0  0  0  0  0  0  0  0999 V2000
    1.1799    0.2861    0.1690 O   0  0  0  0  0  0  0  0  0  0  0  0
    1.0789   -0.9091    0.5610 C   0  0  0  0  0  0  0  0  0  0  0  0
   -0.2231   -1.4988    0.7173 N   0  0  0  0  0  0  0  0  0  0  0  0
   -1.4552   -0.7238    0.5523 C   0  0  1  0  0  0  0  0  0  0  0  0
   -1.8984   -0.7647   -0.9199 C   0  0  0  0  0  0  0  0  0  0  0  0
   -3.0671    0.1443   -1.1702 C   0  0  0  0  0  0  0  0  0  0  0  0
   -4.4096   -0.2201   -1.2093 C   0  0  0  0  0  0  0  0  0  0  0  0
   -5.1895    0.8711   -1.3855 N   0  0  0  0  0  0  0  0  0  0  0  0
   -4.3516    1.9209   -1.4466 C   0  0  0  0  0  0  0  0  0  0  0  0
   -4.6898    3.2645   -1.6022 C   0  0  0  0  0  0  0  0  0  0  0  0
   -3.6455    4.2075   -1.6199 C   0  0  0  0  0  0  0  0  0  0  0  0
   -2.3026    3.7914   -1.4799 C   0  0  0  0  0  0  0  0  0  0  0  0
   -1.9913    2.4285   -1.3224 C   0  0  0  0  0  0  0  0  0  0  0  0
   -3.0477    1.5174   -1.3139 C   0  0  0  0  0  0  0  0  0  0  0  0
   -2.5227   -1.2768    1.4570 C   0  0  0  0  0  0  0  0  0  0  0  0
   -3.0232   -0.5519    2.3582 O   0  0  0  0  0  0  0  0  0  0  0  0
   -2.9623   -2.5884    1.2999 O   0  0  0  0  0  0  0  0  0  0  0  0
    2.3096   -1.6897    0.8349 C   0  0  0  0  0  0  0  0  0  0  0  0
    2.2875   -2.8038    1.6960 C   0  0  0  0  0  0  0  0  0  0  0  0
    3.4580   -3.5261    1.9490 C   0  0  0  0  0  0  0  0  0  0  0  0
    4.6614   -3.1436    1.3526 C   0  0  0  0  0  0  0  0  0  0  0  0
    4.6984   -2.0341    0.5056 C   0  0  0  0  0  0  0  0  0  0  0  0
    3.5315   -1.3075    0.2497 C   0  0  0  0  0  0  0  0  0  0  0  0
   -0.2998   -2.5401    0.7595 H   0  0  0  0  0  0  0  0  0  0  0  0
   -1.2648    0.3345    0.8425 H   0  0  0  0  0  0  0  0  0  0  0  0
   -2.1618   -1.8046   -1.2132 H   0  0  0  0  0  0  0  0  0  0  0  0
   -1.0552   -0.4439   -1.5688 H   0  0  0  0  0  0  0  0  0  0  0  0
   -4.7938   -1.2261   -1.1012 H   0  0  0  0  0  0  0  0  0  0  0  0
   -6.2318    0.8911   -1.4462 H   0  0  0  0  0  0  0  0  0  0  0  0
   -5.7219    3.5742   -1.7030 H   0  0  0  0  0  0  0  0  0  0  0  0
   -3.8730    5.2588   -1.7387 H   0  0  0  0  0  0  0  0  0  0  0  0
   -1.5080    4.5259   -1.4922 H   0  0  0  0  0  0  0  0  0  0  0  0
   -0.9652    2.1028   -1.2111 H   0  0  0  0  0  0  0  0  0  0  0  0
   -3.6830   -2.9701    1.9006 H   0  0  0  0  0  0  0  0  0  0  0  0
    1.3762   -3.1069    2.1939 H   0  0  0  0  0  0  0  0  0  0  0  0
    3.4328   -4.3800    2.6136 H   0  0  0  0  0  0  0  0  0  0  0  0
    5.5659   -3.7040    1.5507 H   0  0  0  0  0  0  0  0  0  0  0  0
    5.6323   -1.7363    0.0464 H   0  0  0  0  0  0  0  0  0  0  0  0
    3.5829   -0.4532   -0.4140 H   0  0  0  0  0  0  0  0  0  0  0  0
  1  2  2  0
  2  3  1  0
  3  4  1  0
  4  5  1  0
  5  6  1  0
  6  7  2  0
  7  8  1  0
  8  9  1  0
  9 10  2  0
 10 11  1  0
 11 12  2  0
 12 13  1  0
 13 14  2  0
  4 15  1  0
 15 16  2  0
 15 17  1  0
  2 18  1  0
 18 19  2  0
 19 20  1  0
 20 21  2  0
 21 22  1  0
 22 23  2  0
 14  6  1  0
 23 18  1  0
 14  9  1  0
  3 24  1  0
  4 25  1  1
  5 26  1  0
  5 27  1  0
  7 28  1  0
  8 29  1  0
 10 30  1  0
 11 31  1  0
 12 32  1  0
 13 33  1  0
 17 34  1  0
 19 35  1  0
 20 36  1  0
 21 37  1  0
 22 38  1  0
 23 39  1  0
M  END
>  <UniqueID>  (2) 
1

>  <SMILES>  (2) 
O=C(N[C@@H](Cc1c[nH]c2ccccc12)C(=O)O)c1ccccc1

>  <Energy>  (2) 
71.63258677620048

>  <Genealogy>  (2) 
O=C(N[C@@H](Cc1c[nH]c2ccccc12)C(=O)O)c1ccccc1 (3D coordinates assigned)
O=C(N[C@@H](Cc1c[nH]c2ccccc12)C(=O)O)c1ccccc1 (optimized conformer: 71.63258677620048 kcal/mol)

$$$$
untitled_line_2
     RDKit          3D

 31 32  0  0  0  0  0  0  0  0999 V2000
   -1.6048   -1.3334    2.8964 N   0  0  0  0  0  0  0  0  0  0  0  0
   -0.5527   -1.6306    1.9799 C   0  0  0  0  0  0  0  0  0  0  0  0
    0.5133   -0.9593    2.0212 O   0  0  0  0  0  0  0  0  0  0  0  0
   -0.7169   -2.6828    1.0179 N   0  0  0  0  0  0  0  0  0  0  0  0
    0.2757   -2.9741   -0.0232 C   0  0  2  0  0  0  0  0  0  0  0  0
   -0.1910   -2.4170   -1.3776 C   0  0  0  0  0  0  0  0  0  0  0  0
   -0.3162   -0.9217   -1.3371 C   0  0  0  0  0  0  0  0  0  0  0  0
   -1.4828   -0.1927   -1.1254 C   0  0  0  0  0  0  0  0  0  0  0  0
   -1.2072    1.1299   -1.0594 N   0  0  0  0  0  0  0  0  0  0  0  0
    0.1235    1.2405   -1.2156 C   0  0  0  0  0  0  0  0  0  0  0  0
    0.8826    2.4098   -1.1954 C   0  0  0  0  0  0  0  0  0  0  0  0
    2.2757    2.2921   -1.3539 C   0  0  0  0  0  0  0  0  0  0  0  0
    2.8723    1.0226   -1.5226 C   0  0  0  0  0  0  0  0  0  0  0  0
    2.0814   -0.1406   -1.5363 C   0  0  0  0  0  0  0  0  0  0  0  0
    0.7029    0.0089   -1.3832 C   0  0  0  0  0  0  0  0  0  0  0  0
    0.4904   -4.4612   -0.1240 C   0  0  0  0  0  0  0  0  0  0  0  0
   -0.4967   -5.2389   -0.2156 O   0  0  0  0  0  0  0  0  0  0  0  0
    1.7773   -4.9921   -0.1569 O   0  0  0  0  0  0  0  0  0  0  0  0
   -2.4965   -1.8759    2.8758 H   0  0  0  0  0  0  0  0  0  0  0  0
   -1.4940   -0.5663    3.5961 H   0  0  0  0  0  0  0  0  0  0  0  0
   -1.6409   -3.1703    0.9782 H   0  0  0  0  0  0  0  0  0  0  0  0
    1.2497   -2.5054    0.2372 H   0  0  0  0  0  0  0  0  0  0  0  0
   -1.1719   -2.8620   -1.6549 H   0  0  0  0  0  0  0  0  0  0  0  0
    0.5403   -2.6926   -2.1685 H   0  0  0  0  0  0  0  0  0  0  0  0
   -2.4744   -0.6096   -1.0065 H   0  0  0  0  0  0  0  0  0  0  0  0
   -1.8903    1.9034   -0.8995 H   0  0  0  0  0  0  0  0  0  0  0  0
    0.4172    3.3773   -1.0581 H   0  0  0  0  0  0  0  0  0  0  0  0
    2.8945    3.1798   -1.3427 H   0  0  0  0  0  0  0  0  0  0  0  0
    3.9452    0.9440   -1.6400 H   0  0  0  0  0  0  0  0  0  0  0  0
    2.5319   -1.1168   -1.6602 H   0  0  0  0  0  0  0  0  0  0  0  0
    2.5960   -4.3977   -0.1085 H   0  0  0  0  0  0  0  0  0  0  0  0
  1  2  1  0
  2  3  2  0
  2  4  1  0
  4  5  1  0
  5  6  1  0
  6  7  1  0
  7  8  2  0
  8  9  1  0
  9 10  1  0
 10 11  2  0
 11 12  1  0
 12 13  2  0
 13 14  1  0
 14 15  2  0
  5 16  1  0
 16 17  2  0
 16 18  1  0
 15  7  1  0
 15 10  1  0
  1 19  1  0
  1 20  1  0
  4 21  1  0
  5 22  1  1
  6 23  1  0
  6 24  1  0
  8 25  1  0
  9 26  1  0
 11 27  1  0
 12 28  1  0
 13 29  1  0
 14 30  1  0
 18 31  1  0
M  END
>  <UniqueID>  (3) 
2

>  <SMILES>  (3) 
NC(=O)N[C@H](Cc1c[nH]c2ccccc12)C(=O)O

>  <Energy>  (3) 
56.64658710567307

>  <Genealogy>  (3) 
NC(=O)N[C@H](Cc1c[nH]c2ccccc12)C(=O)O (3D coordinates assigned)
NC(=O)N[C@H](Cc1c[nH]c2ccccc12)C(=O)O (optimized conformer: 56.64658710567307 kcal/mol)

$$$$
untitled_line_3
     RDKit          3D

 29 30  0  0  0  0  0  0  0  0999 V2000
    0.5714   -0.8960   -2.5251 N   0  0  0  0  0  0  0  0  0  0  0  0
    1.5518   -1.6677   -1.8259 C   0  0  0  0  0  0  0  0  0  0  0  0
    2.7678   -1.5302   -2.1265 O   0  0  0  0  0  0  0  0  0  0  0  0
    1.1721   -2.6141   -0.7071 C   0  0  2  0  0  0  0  0  0  0  0  0
   -0.0127   -3.4152   -1.0451 N   0  0  0  0  0  4  0  0  0  0  0  0
    1.0137   -1.8839    0.6456 C   0  0  0  0  0  0  0  0  0  0  0  0
   -0.0838   -0.8554    0.6577 C   0  0  0  0  0  0  0  0  0  0  0  0
   -1.4264   -1.0782    0.9509 C   0  0  0  0  0  0  0  0  0  0  0  0
   -2.1320    0.0700    0.8378 N   0  0  0  0  0  0  0  0  0  0  0  0
   -1.2478    1.0157    0.4762 C   0  0  0  0  0  0  0  0  0  0  0  0
   -1.5062    2.3635    0.2308 C   0  0  0  0  0  0  0  0  0  0  0  0
   -0.4260    3.1822   -0.1462 C   0  0  0  0  0  0  0  0  0  0  0  0
    0.8733    2.6416   -0.2680 C   0  0  0  0  0  0  0  0  0  0  0  0
    1.1047    1.2777   -0.0135 C   0  0  0  0  0  0  0  0  0  0  0  0
    0.0137    0.4904    0.3576 C   0  0  0  0  0  0  0  0  0  0  0  0
    0.8666   -0.2475   -3.2882 H   0  0  0  0  0  0  0  0  0  0  0  0
   -0.4391   -0.9289   -2.2698 H   0  0  0  0  0  0  0  0  0  0  0  0
    2.0226   -3.3228   -0.5788 H   0  0  0  0  0  0  0  0  0  0  0  0
   -0.8697   -2.8250   -1.1268 H   0  0  0  0  0  0  0  0  0  0  0  0
   -0.1724   -4.1342   -0.3025 H   0  0  0  0  0  0  0  0  0  0  0  0
    0.1452   -3.9129   -1.9516 H   0  0  0  0  0  0  0  0  0  0  0  0
    1.9757   -1.3956    0.9128 H   0  0  0  0  0  0  0  0  0  0  0  0
    0.8092   -2.6333    1.4406 H   0  0  0  0  0  0  0  0  0  0  0  0
   -1.8624   -2.0300    1.2253 H   0  0  0  0  0  0  0  0  0  0  0  0
   -3.1570    0.1916    0.9957 H   0  0  0  0  0  0  0  0  0  0  0  0
   -2.5055    2.7683    0.3252 H   0  0  0  0  0  0  0  0  0  0  0  0
   -0.5921    4.2329   -0.3450 H   0  0  0  0  0  0  0  0  0  0  0  0
    1.6964    3.2807   -0.5600 H   0  0  0  0  0  0  0  0  0  0  0  0
    2.0974    0.8580   -0.1090 H   0  0  0  0  0  0  0  0  0  0  0  0
  1  2  1  0
  2  3  2  0
  2  4  1  0
  4  5  1  0
  4  6  1  0
  6  7  1  0
  7  8  2  0
  8  9  1  0
  9 10  1  0
 10 11  2  0
 11 12  1  0
 12 13  2  0
 13 14  1  0
 14 15  2  0
 15  7  1  0
 15 10  1  0
  1 16  1  0
  1 17  1  0
  4 18  1  1
  5 19  1  0
  5 20  1  0
  5 21  1  0
  6 22  1  0
  6 23  1  0
  8 24  1  0
  9 25  1  0
 11 26  1  0
 12 27  1  0
 13 28  1  0
 14 29  1  0
M  CHG  1   5   1
M  END
>  <UniqueID>  (4) 
3

>  <SMILES>  (4) 
NC(=O)[C@H]([NH3+])Cc1c[nH]c2ccccc12

>  <Energy>  (4) 
58.472861492490786

>  <Genealogy>  (4) 
NC(=O)[C@H]([NH3+])Cc1c[nH]c2ccccc12 (protonated)
NC(=O)[C@H]([NH3+])Cc1c[nH]c2ccccc12 (3D coordinates assigned)
NC(=O)[C@H]([NH3+])Cc1c[nH]c2ccccc12 (optimized conformer: 58.472861492490786 kcal/mol)

$$$$
untitled_line_4
     RDKit          3D

 29 30  0  0  0  0  0  0  0  0999 V2000
    2.3988   -0.3299   -2.5767 N   0  0  0  0  0  0  0  0  0  0  0  0
    1.9236   -1.1186   -1.4858 C   0  0  0  0  0  0  0  0  0  0  0  0
    2.3637   -0.8988   -0.3250 O   0  0  0  0  0  0  0  0  0  0  0  0
    0.8589   -2.1664   -1.7152 C   0  0  1  0  0  0  0  0  0  0  0  0
    0.9879   -3.2804   -0.7648 N   0  0  0  0  0  4  0  0  0  0  0  0
   -0.5573   -1.5496   -1.6871 C   0  0  0  0  0  0  0  0  0  0  0  0
   -0.9174   -0.9382   -0.3604 C   0  0  0  0  0  0  0  0  0  0  0  0
   -1.4977   -1.5923    0.7229 C   0  0  0  0  0  0  0  0  0  0  0  0
   -1.6444   -0.7428    1.7649 N   0  0  0  0  0  0  0  0  0  0  0  0
   -1.1607    0.4409    1.3504 C   0  0  0  0  0  0  0  0  0  0  0  0
   -1.0920    1.6270    2.0801 C   0  0  0  0  0  0  0  0  0  0  0  0
   -0.5400    2.7565    1.4487 C   0  0  0  0  0  0  0  0  0  0  0  0
   -0.0752    2.6765    0.1173 C   0  0  0  0  0  0  0  0  0  0  0  0
   -0.1576    1.4664   -0.5950 C   0  0  0  0  0  0  0  0  0  0  0  0
   -0.7074    0.3623    0.0581 C   0  0  0  0  0  0  0  0  0  0  0  0
    2.0227   -0.4706   -3.5404 H   0  0  0  0  0  0  0  0  0  0  0  0
    3.1182    0.4099   -2.4175 H   0  0  0  0  0  0  0  0  0  0  0  0
    1.0115   -2.5773   -2.7388 H   0  0  0  0  0  0  0  0  0  0  0  0
    0.2503   -3.9970   -0.9556 H   0  0  0  0  0  0  0  0  0  0  0  0
    1.9228   -3.7347   -0.8833 H   0  0  0  0  0  0  0  0  0  0  0  0
    0.8963   -2.9500    0.2228 H   0  0  0  0  0  0  0  0  0  0  0  0
   -0.6390   -0.7772   -2.4821 H   0  0  0  0  0  0  0  0  0  0  0  0
   -1.3024   -2.3368   -1.9335 H   0  0  0  0  0  0  0  0  0  0  0  0
   -1.7879   -2.6346    0.7484 H   0  0  0  0  0  0  0  0  0  0  0  0
   -2.0473   -0.9668    2.7018 H   0  0  0  0  0  0  0  0  0  0  0  0
   -1.4506    1.6785    3.1000 H   0  0  0  0  0  0  0  0  0  0  0  0
   -0.4714    3.6929    1.9869 H   0  0  0  0  0  0  0  0  0  0  0  0
    0.3468    3.5520   -0.3585 H   0  0  0  0  0  0  0  0  0  0  0  0
    0.1955    1.4008   -1.6155 H   0  0  0  0  0  0  0  0  0  0  0  0
  1  2  1  0
  2  3  2  0
  2  4  1  0
  4  5  1  0
  4  6  1  0
  6  7  1  0
  7  8  2  0
  8  9  1  0
  9 10  1  0
 10 11  2  0
 11 12  1  0
 12 13  2  0
 13 14  1  0
 14 15  2  0
 15  7  1  0
 15 10  1  0
  1 16  1  0
  1 17  1  0
  4 18  1  6
  5 19  1  0
  5 20  1  0
  5 21  1  0
  6 22  1  0
  6 23  1  0
  8 24  1  0
  9 25  1  0
 11 26  1  0
 12 27  1  0
 13 28  1  0
 14 29  1  0
M  CHG  1   5   1
M  END
>  <UniqueID>  (5) 
4

>  <SMILES>  (5) 
NC(=O)[C@@H]([NH3+])Cc1c[nH]c2ccccc12

>  <Energy>  (5) 
57.84989441738258

>  <Genealogy>  (5) 
NC(=O)[C@@H]([NH3+])Cc1c[nH]c2ccccc12 (protonated)
NC(=O)[C@@H]([NH3+])Cc1c[nH]c2ccccc12 (3D coordinates assigned)
NC(=O)[C@@H]([NH3+])Cc1c[nH]c2ccccc12 (optimized conformer: 57.84989441738258 kcal/mol)

$$$$
untitled_line_5
     RDKit          3D

 29 30  0  0  0  0  0  0  0  0999 V2000
   -2.0942   -2.5514   -1.8655 N   0  0  0  0  0  0  0  0  0  0  0  0
   -2.5897   -2.5511   -0.5240 C   0  0  0  0  0  0  0  0  0  0  0  0
   -3.8267   -2.6903   -0.3279 O   0  0  0  0  0  0  0  0  0  0  0  0
   -1.6741   -2.3479    0.6645 C   0  0  1  0  0  0  0  0  0  0  0  0
   -0.4217   -3.1044    0.5281 N   0  0  0  0  0  4  0  0  0  0  0  0
   -1.4219   -0.8509    0.9538 C   0  0  0  0  0  0  0  0  0  0  0  0
   -0.7294   -0.1224   -0.1655 C   0  0  0  0  0  0  0  0  0  0  0  0
   -1.3407    0.4984   -1.2514 C   0  0  0  0  0  0  0  0  0  0  0  0
   -0.4113    1.0340   -2.0749 N   0  0  0  0  0  0  0  0  0  0  0  0
    0.7810    0.7591   -1.5182 C   0  0  0  0  0  0  0  0  0  0  0  0
    2.0401    1.1084   -2.0044 C   0  0  0  0  0  0  0  0  0  0  0  0
    3.1656    0.7174   -1.2565 C   0  0  0  0  0  0  0  0  0  0  0  0
    3.0091   -0.0045   -0.0525 C   0  0  0  0  0  0  0  0  0  0  0  0
    1.7261   -0.3429    0.4143 C   0  0  0  0  0  0  0  0  0  0  0  0
    0.6287    0.0556   -0.3504 C   0  0  0  0  0  0  0  0  0  0  0  0
   -2.7521   -2.6940   -2.6636 H   0  0  0  0  0  0  0  0  0  0  0  0
   -1.0885   -2.3785   -2.0808 H   0  0  0  0  0  0  0  0  0  0  0  0
   -2.2067   -2.7512    1.5565 H   0  0  0  0  0  0  0  0  0  0  0  0
   -0.6359   -4.1115    0.3429 H   0  0  0  0  0  0  0  0  0  0  0  0
    0.1716   -2.7350   -0.2472 H   0  0  0  0  0  0  0  0  0  0  0  0
    0.1202   -3.0467    1.4208 H   0  0  0  0  0  0  0  0  0  0  0  0
   -0.8201   -0.7531    1.8827 H   0  0  0  0  0  0  0  0  0  0  0  0
   -2.3953   -0.3525    1.1545 H   0  0  0  0  0  0  0  0  0  0  0  0
   -2.4067    0.5476   -1.4316 H   0  0  0  0  0  0  0  0  0  0  0  0
   -0.5884    1.5530   -2.9635 H   0  0  0  0  0  0  0  0  0  0  0  0
    2.1498    1.6627   -2.9276 H   0  0  0  0  0  0  0  0  0  0  0  0
    4.1577    0.9723   -1.6057 H   0  0  0  0  0  0  0  0  0  0  0  0
    3.8822   -0.2992    0.5150 H   0  0  0  0  0  0  0  0  0  0  0  0
    1.6012   -0.8949    1.3363 H   0  0  0  0  0  0  0  0  0  0  0  0
  1  2  1  0
  2  3  2  0
  2  4  1  0
  4  5  1  0
  4  6  1  0
  6  7  1  0
  7  8  2  0
  8  9  1  0
  9 10  1  0
 10 11  2  0
 11 12  1  0
 12 13  2  0
 13 14  1  0
 14 15  2  0
 15  7  1  0
 15 10  1  0
  1 16  1  0
  1 17  1  0
  4 18  1  1
  5 19  1  0
  5 20  1  0
  5 21  1  0
  6 22  1  0
  6 23  1  0
  8 24  1  0
  9 25  1  0
 11 26  1  0
 12 27  1  0
 13 28  1  0
 14 29  1  0
M  CHG  1   5   1
M  END
>  <UniqueID>  (6) 
5

>  <SMILES>  (6) 
NC(=O)[C@@H]([NH3+])Cc1c[nH]c2ccccc12

>  <Energy>  (6) 
58.722860913585244

>  <Genealogy>  (6) 
NC(=O)C([NH3+])Cc1c[nH]c2ccccc12 (protonated)
NC(=O)[C@@H]([NH3+])Cc1c[nH]c2ccccc12 (chirality)
NC(=O)[C@@H]([NH3+])Cc1c[nH]c2ccccc12 (3D coordinates assigned)
NC(=O)[C@@H]([NH3+])Cc1c[nH]c2ccccc12 (optimized conformer: 58.722860913585244 kcal/mol)

$$$$
untitled_line_6
     RDKit          3D

 29 30  0  0  0  0  0  0  0  0999 V2000
   -2.0942   -2.5514   -1.8655 N   0  0  0  0  0  0  0  0  0  0  0  0
   -2.5897   -2.5511   -0.5240 C   0  0  0  0  0  0  0  0  0  0  0  0
   -3.8267   -2.6903   -0.3279 O   0  0  0  0  0  0  0  0  0  0  0  0
   -1.6741   -2.3479    0.6645 C   0  0  1  0  0  0  0  0  0  0  0  0
   -0.4217   -3.1044    0.5281 N   0  0  0  0  0  4  0  0  0  0  0  0
   -1.4219   -0.8509    0.9538 C   0  0  0  0  0  0  0  0  0  0  0  0
   -0.7294   -0.1224   -0.1655 C   0  0  0  0  0  0  0  0  0  0  0  0
   -1.3407    0.4984   -1.2514 C   0  0  0  0  0  0  0  0  0  0  0  0
   -0.4113    1.0340   -2.0749 N   0  0  0  0  0  0  0  0  0  0  0  0
    0.7810    0.7591   -1.5182 C   0  0  0  0  0  0  0  0  0  0  0  0
    2.0401    1.1084   -2.0044 C   0  0  0  0  0  0  0  0  0  0  0  0
    3.1656    0.7174   -1.2565 C   0  0  0  0  0  0  0  0  0  0  0  0
    3.0091   -0.0045   -0.0525 C   0  0  0  0  0  0  0  0  0  0  0  0
    1.7261   -0.3429    0.4143 C   0  0  0  0  0  0  0  0  0  0  0  0
    0.6287    0.0556   -0.3504 C   0  0  0  0  0  0  0  0  0  0  0  0
   -2.7521   -2.6940   -2.6636 H   0  0  0  0  0  0  0  0  0  0  0  0
   -1.0885   -2.3785   -2.0808 H   0  0  0  0  0  0  0  0  0  0  0  0
   -2.2067   -2.7512    1.5565 H   0  0  0  0  0  0  0  0  0  0  0  0
   -0.6359   -4.1115    0.3429 H   0  0  0  0  0  0  0  0  0  0  0  0
    0.1716   -2.7350   -0.2472 H   0  0  0  0  0  0  0  0  0  0  0  0
    0.1202   -3.0467    1.4208 H   0  0  0  0  0  0  0  0  0  0  0  0
   -0.8201   -0.7531    1.8827 H   0  0  0  0  0  0  0  0  0  0  0  0
   -2.3953   -0.3525    1.1545 H   0  0  0  0  0  0  0  0  0  0  0  0
   -2.4067    0.5476   -1.4316 H   0  0  0  0  0  0  0  0  0  0  0  0
   -0.5884    1.5530   -2.9635 H   0  0  0  0  0  0  0  0  0  0  0  0
    2.1498    1.6627   -2.9276 H   0  0  0  0  0  0  0  0  0  0  0  0
    4.1577    0.9723   -1.6057 H   0  0  0  0  0  0  0  0  0  0  0  0
    3.8822   -0.2992    0.5150 H   0  0  0  0  0  0  0  0  0  0  0  0
    1.6012   -0.8949    1.3363 H   0  0  0  0  0  0  0  0  0  0  0  0
  1  2  1  0
  2  3  2  0
  2  4  1  0
  4  5  1  0
  4  6  1  0
  6  7  1  0
  7  8  2  0
  8  9  1  0
  9 10  1  0
 10 11  2  0
 11 12  1  0
 12 13  2  0
 13 14  1  0
 14 15  2  0
 15  7  1  0
 15 10  1  0
  1 16  1  0
  1 17  1  0
  4 18  1  1
  5 19  1  0
  5 20  1  0
  5 21  1  0
  6 22  1  0
  6 23  1  0
  8 24  1  0
  9 25  1  0
 11 26  1  0
 12 27  1  0
 13 28  1  0
 14 29  1  0
M  CHG  1   5   1
M  END
>  <UniqueID>  (7) 
6

>  <SMILES>  (7) 
NC(=O)[C@@H]([NH3+])Cc1c[nH]c2ccccc12

>  <Energy>  (7) 
58.722860913585244

>  <Genealogy>  (7) 
NC(=O)[C@@H]([NH3+])Cc1c[nH]c2ccccc12 (protonated)
NC(=O)[C@@H]([NH3+])Cc1c[nH]c2ccccc12 (3D coordinates assigned)
NC(=O)[C@@H]([NH3+])Cc1c[nH]c2ccccc12 (optimized conformer: 58.722860913585244 kcal/mol)

$$$$
untitled_line_7
     RDKit          3D

 31 32  0  0  0  0  0  0  0  0999 V2000
   -1.6140    1.0452   -0.3033 N   0  0  0  0  0  4  0  0  0  0  0  0
   -0.8040    1.3772    0.8783 C   0  0  2  0  0  0  0  0  0  0  0  0
   -0.7462    2.9108    1.0577 C   0  0  0  0  0  0  0  0  0  0  0  0
   -0.1540    3.2983    2.3789 C   0  0  0  0  0  0  0  0  0  0  0  0
    1.0072    3.7847    2.4338 O   0  0  0  0  0  0  0  0  0  0  0  0
   -0.8814    3.1015    3.5485 O   0  0  0  0  0  0  0  0  0  0  0  0
    0.6193    0.7822    0.7536 C   0  0  0  0  0  0  0  0  0  0  0  0
    0.5997   -0.7195    0.7497 C   0  0  0  0  0  0  0  0  0  0  0  0
    0.4575   -1.5448    1.8612 C   0  0  0  0  0  0  0  0  0  0  0  0
    0.4270   -2.8434    1.4845 N   0  0  0  0  0  0  0  0  0  0  0  0
    0.5394   -2.8446    0.1448 C   0  0  0  0  0  0  0  0  0  0  0  0
    0.5399   -3.9527   -0.7013 C   0  0  0  0  0  0  0  0  0  0  0  0
    0.6506   -3.7236   -2.0850 C   0  0  0  0  0  0  0  0  0  0  0  0
    0.7537   -2.4071   -2.5864 C   0  0  0  0  0  0  0  0  0  0  0  0
    0.7490   -1.3074   -1.7091 C   0  0  0  0  0  0  0  0  0  0  0  0
    0.6433   -1.5661   -0.3417 C   0  0  0  0  0  0  0  0  0  0  0  0
   -1.1556    1.3998   -1.1744 H   0  0  0  0  0  0  0  0  0  0  0  0
   -1.7432    0.0106   -0.3759 H   0  0  0  0  0  0  0  0  0  0  0  0
   -2.5641    1.4743   -0.2184 H   0  0  0  0  0  0  0  0  0  0  0  0
   -1.2976    0.9397    1.7769 H   0  0  0  0  0  0  0  0  0  0  0  0
   -1.7740    3.3309    1.0132 H   0  0  0  0  0  0  0  0  0  0  0  0
   -0.1631    3.3694    0.2287 H   0  0  0  0  0  0  0  0  0  0  0  0
   -0.4921    3.3495    4.4502 H   0  0  0  0  0  0  0  0  0  0  0  0
    1.1122    1.1594   -0.1679 H   0  0  0  0  0  0  0  0  0  0  0  0
    1.2428    1.1068    1.6135 H   0  0  0  0  0  0  0  0  0  0  0  0
    0.3715   -1.2113    2.8872 H   0  0  0  0  0  0  0  0  0  0  0  0
    0.3242   -3.6733    2.1099 H   0  0  0  0  0  0  0  0  0  0  0  0
    0.4548   -4.9575   -0.3081 H   0  0  0  0  0  0  0  0  0  0  0  0
    0.6537   -4.5616   -2.7697 H   0  0  0  0  0  0  0  0  0  0  0  0
    0.8348   -2.2429   -3.6530 H   0  0  0  0  0  0  0  0  0  0  0  0
    0.8221   -0.2972   -2.0893 H   0  0  0  0  0  0  0  0  0  0  0  0
  1  2  1  0
  2  3  1  0
  3  4  1  0
  4  5  2  0
  4  6  1  0
  2  7  1  0
  7  8  1  0
  8  9  2  0
  9 10  1  0
 10 11  1  0
 11 12  2  0
 12 13  1  0
 13 14  2  0
 14 15  1  0
 15 16  2  0
 16  8  1  0
 16 11  1  0
  1 17  1  0
  1 18  1  0
  1 19  1  0
  2 20  1  1
  3 21  1  0
  3 22  1  0
  6 23  1  0
  7 24  1  0
  7 25  1  0
  9 26  1  0
 10 27  1  0
 12 28  1  0
 13 29  1  0
 14 30  1  0
 15 31  1  0
M  CHG  1   1   1
M  END
>  <UniqueID>  (8) 
7

>  <SMILES>  (8) 
[NH3+][C@H](CC(=O)O)Cc1c[nH]c2ccccc12

>  <Energy>  (8) 
58.507244054514125

>  <Genealogy>  (8) 
[NH3+][C@H](CC(=O)O)Cc1c[nH]c2ccccc12 (protonated)
[NH3+][C@H](CC(=O)O)Cc1c[nH]c2ccccc12 (3D coordinates assigned)
[NH3+][C@H](CC(=O)O)Cc1c[nH]c2ccccc12 (optimized conformer: 58.507244054514125 kcal/mol)

$$$$
untitled_line_8
     RDKit          3D

 29 30  0  0  0  0  0  0  0  0999 V2000
    4.4015    0.8293   -0.2863 N   0  0  0  0  0  0  0  0  0  0  0  0
    3.4098   -0.1923   -0.3957 C   0  0  0  0  0  0  0  0  0  0  0  0
    3.6846   -1.2609   -1.0056 O   0  0  0  0  0  0  0  0  0  0  0  0
    2.0273    0.0203    0.1708 C   0  0  2  0  0  0  0  0  0  0  0  0
    1.5933   -1.1665    0.9218 N   0  0  0  0  0  4  0  0  0  0  0  0
    1.0481    0.3556   -0.9722 C   0  0  0  0  0  0  0  0  0  0  0  0
   -0.2982    0.7675   -0.4497 C   0  0  0  0  0  0  0  0  0  0  0  0
   -0.6387    2.0183    0.0568 C   0  0  0  0  0  0  0  0  0  0  0  0
   -1.9184    2.0182    0.4944 N   0  0  0  0  0  0  0  0  0  0  0  0
   -2.3854    0.7763    0.2778 C   0  0  0  0  0  0  0  0  0  0  0  0
   -3.6546    0.2865    0.5828 C   0  0  0  0  0  0  0  0  0  0  0  0
   -3.9283   -1.0611    0.2859 C   0  0  0  0  0  0  0  0  0  0  0  0
   -2.9377   -1.8804   -0.2995 C   0  0  0  0  0  0  0  0  0  0  0  0
   -1.6648   -1.3596   -0.5952 C   0  0  0  0  0  0  0  0  0  0  0  0
   -1.4243   -0.0183   -0.2939 C   0  0  0  0  0  0  0  0  0  0  0  0
    4.1885    1.7346    0.1882 H   0  0  0  0  0  0  0  0  0  0  0  0
    5.3535    0.6833   -0.6895 H   0  0  0  0  0  0  0  0  0  0  0  0
    2.0639    0.8860    0.8707 H   0  0  0  0  0  0  0  0  0  0  0  0
    0.7018   -0.9637    1.4286 H   0  0  0  0  0  0  0  0  0  0  0  0
    1.4470   -1.9801    0.2805 H   0  0  0  0  0  0  0  0  0  0  0  0
    2.3157   -1.4184    1.6356 H   0  0  0  0  0  0  0  0  0  0  0  0
    1.4573    1.1975   -1.5728 H   0  0  0  0  0  0  0  0  0  0  0  0
    0.9410   -0.5141   -1.6557 H   0  0  0  0  0  0  0  0  0  0  0  0
    0.0182    2.8767    0.1111 H   0  0  0  0  0  0  0  0  0  0  0  0
   -2.4317    2.8193    0.9248 H   0  0  0  0  0  0  0  0  0  0  0  0
   -4.4054    0.9206    1.0363 H   0  0  0  0  0  0  0  0  0  0  0  0
   -4.9035   -1.4733    0.5102 H   0  0  0  0  0  0  0  0  0  0  0  0
   -3.1587   -2.9165   -0.5206 H   0  0  0  0  0  0  0  0  0  0  0  0
   -0.9017   -1.9848   -1.0394 H   0  0  0  0  0  0  0  0  0  0  0  0
  1  2  1  0
  2  3  2  0
  2  4  1  0
  4  5  1  0
  4  6  1  0
  6  7  1  0
  7  8  2  0
  8  9  1  0
  9 10  1  0
 10 11  2  0
 11 12  1  0
 12 13  2  0
 13 14  1  0
 14 15  2  0
 15  7  1  0
 15 10  1  0
  1 16  1  0
  1 17  1  0
  4 18  1  1
  5 19  1  0
  5 20  1  0
  5 21  1  0
  6 22  1  0
  6 23  1  0
  8 24  1  0
  9 25  1  0
 11 26  1  0
 12 27  1  0
 13 28  1  0
 14 29  1  0
M  CHG  1   5   1
M  END
>  <UniqueID>  (9) 
8

>  <SMILES>  (9) 
NC(=O)[C@H]([NH3+])Cc1c[nH]c2ccccc12

>  <Energy>  (9) 
57.30294774090638

>  <Genealogy>  (9) 
NC(=O)C([NH3+])Cc1c[nH]c2ccccc12 (protonated)
NC(=O)[C@H]([NH3+])Cc1c[nH]c2ccccc12 (chirality)
NC(=O)[C@H]([NH3+])Cc1c[nH]c2ccccc12 (3D coordinates assigned)
NC(=O)[C@H]([NH3+])Cc1c[nH]c2ccccc12 (optimized conformer: 57.30294774090638 kcal/mol)

$$$$
untitled_line_9
     RDKit          3D

 39 40  0  0  0  0  0  0  0  0999 V2000
   -1.9346   -3.0474    1.9220 C   0  0  0  0  0  0  0  0  0  0  0  0
   -0.9566   -2.3223    0.9855 C   0  0  2  0  0  0  0  0  0  0  0  0
    0.3433   -1.9209    1.7083 C   0  0  0  0  0  0  0  0  0  0  0  0
    0.0808   -0.7100    3.0508 S   0  0  0  0  0  0  0  0  0  0  0  0
   -1.5966   -1.1361    0.3045 C   0  0  0  0  0  0  0  0  0  0  0  0
   -2.4958   -0.4771    0.8961 O   0  0  0  0  0  0  0  0  0  0  0  0
   -1.1363   -0.7270   -0.9926 N   0  0  0  0  0  0  0  0  0  0  0  0
   -1.6471    0.4618   -1.6849 C   0  0  1  0  0  0  0  0  0  0  0  0
   -0.4850    1.3565   -2.1436 C   0  0  0  0  0  0  0  0  0  0  0  0
    0.3369    1.8161   -0.9736 C   0  0  0  0  0  0  0  0  0  0  0  0
   -0.0053    2.8158   -0.0678 C   0  0  0  0  0  0  0  0  0  0  0  0
    0.9159    2.8946    0.9192 N   0  0  0  0  0  0  0  0  0  0  0  0
    1.8301    1.9462    0.6510 C   0  0  0  0  0  0  0  0  0  0  0  0
    2.9539    1.6195    1.4084 C   0  0  0  0  0  0  0  0  0  0  0  0
    3.7657    0.5625    0.9585 C   0  0  0  0  0  0  0  0  0  0  0  0
    3.4386   -0.1378   -0.2236 C   0  0  0  0  0  0  0  0  0  0  0  0
    2.2950    0.2100   -0.9652 C   0  0  0  0  0  0  0  0  0  0  0  0
    1.5098    1.2637   -0.4950 C   0  0  0  0  0  0  0  0  0  0  0  0
   -2.4778    0.0448   -2.8680 C   0  0  0  0  0  0  0  0  0  0  0  0
   -2.0708   -0.8658   -3.6377 O   0  0  0  0  0  0  0  0  0  0  0  0
   -3.6793    0.6881   -3.1523 O   0  0  0  0  0  0  0  0  0  0  0  0
   -1.4483   -3.9446    2.3607 H   0  0  0  0  0  0  0  0  0  0  0  0
   -2.2692   -2.3845    2.7478 H   0  0  0  0  0  0  0  0  0  0  0  0
   -2.8274   -3.3818    1.3515 H   0  0  0  0  0  0  0  0  0  0  0  0
   -0.6776   -3.0528    0.1944 H   0  0  0  0  0  0  0  0  0  0  0  0
    0.8167   -2.8261    2.1444 H   0  0  0  0  0  0  0  0  0  0  0  0
    1.0610   -1.4945    0.9777 H   0  0  0  0  0  0  0  0  0  0  0  0
   -0.1273    0.3632    2.1658 H   0  0  0  0  0  0  0  0  0  0  0  0
   -0.4191   -1.3146   -1.4758 H   0  0  0  0  0  0  0  0  0  0  0  0
   -2.2876    1.0601   -1.0005 H   0  0  0  0  0  0  0  0  0  0  0  0
    0.1583    0.8117   -2.8678 H   0  0  0  0  0  0  0  0  0  0  0  0
   -0.8905    2.2514   -2.6644 H   0  0  0  0  0  0  0  0  0  0  0  0
   -0.8914    3.4350   -0.1176 H   0  0  0  0  0  0  0  0  0  0  0  0
    0.9028    3.5454    1.7357 H   0  0  0  0  0  0  0  0  0  0  0  0
    3.1920    2.1569    2.3171 H   0  0  0  0  0  0  0  0  0  0  0  0
    4.6447    0.2821    1.5239 H   0  0  0  0  0  0  0  0  0  0  0  0
    4.0682   -0.9519   -0.5579 H   0  0  0  0  0  0  0  0  0  0  0  0
    2.0354   -0.3314   -1.8650 H   0  0  0  0  0  0  0  0  0  0  0  0
   -4.0255    1.4410   -2.5699 H   0  0  0  0  0  0  0  0  0  0  0  0
  1  2  1  0
  2  3  1  0
  3  4  1  0
  2  5  1  0
  5  6  2  0
  5  7  1  0
  7  8  1  0
  8  9  1  0
  9 10  1  0
 10 11  2  0
 11 12  1  0
 12 13  1  0
 13 14  2  0
 14 15  1  0
 15 16  2  0
 16 17  1  0
 17 18  2  0
  8 19  1  0
 19 20  2  0
 19 21  1  0
 18 10  1  0
 18 13  1  0
  1 22  1  0
  1 23  1  0
  1 24  1  0
  2 25  1  6
  3 26  1  0
  3 27  1  0
  4 28  1  0
  7 29  1  0
  8 30  1  1
  9 31  1  0
  9 32  1  0
 11 33  1  0
 12 34  1  0
 14 35  1  0
 15 36  1  0
 16 37  1  0
 17 38  1  0
 21 39  1  0
M  END
>  <UniqueID>  (10) 
9

>  <SMILES>  (10) 
C[C@H](CS)C(=O)N[C@@H](Cc1c[nH]c2ccccc12)C(=O)O

>  <Energy>  (10) 
59.32148446547012

>  <Genealogy>  (10) 
C[C@H](CS)C(=O)N[C@@H](Cc1c[nH]c2ccccc12)C(=O)O (3D coordinates assigned)
C[C@H](CS)C(=O)N[C@@H](Cc1c[nH]c2ccccc12)C(=O)O (optimized conformer: 59.32148446547012 kcal/mol)

$$$$
untitled_line_10
     RDKit          3D

 31 32  0  0  0  0  0  0  0  0999 V2000
   -4.6626   -0.9755   -0.4580 O   0  0  0  0  0  0  0  0  0  0  0  0
   -4.1425    0.1711   -0.4031 C   0  0  0  0  0  0  0  0  0  0  0  0
   -4.5480    1.1468   -1.3103 O   0  0  0  0  0  0  0  0  0  0  0  0
   -3.1198    0.4533    0.5696 N   0  0  0  0  0  4  0  0  0  0  0  0
   -1.8069   -0.0580    0.1241 C   0  0  2  0  0  0  0  0  0  0  0  0
   -0.7718    0.0669    1.2621 C   0  0  0  0  0  0  0  0  0  0  0  0
    0.5251   -0.6062    0.9092 C   0  0  0  0  0  0  0  0  0  0  0  0
    0.7862   -1.9720    0.9662 C   0  0  0  0  0  0  0  0  0  0  0  0
    2.0279   -2.2357    0.4994 N   0  0  0  0  0  0  0  0  0  0  0  0
    2.5485   -1.0502    0.1380 C   0  0  0  0  0  0  0  0  0  0  0  0
    3.8042   -0.8149   -0.4205 C   0  0  0  0  0  0  0  0  0  0  0  0
    4.1414    0.5117   -0.7452 C   0  0  0  0  0  0  0  0  0  0  0  0
    3.2255    1.5610   -0.5099 C   0  0  0  0  0  0  0  0  0  0  0  0
    1.9645    1.2939    0.0534 C   0  0  0  0  0  0  0  0  0  0  0  0
    1.6596   -0.0311    0.3686 C   0  0  0  0  0  0  0  0  0  0  0  0
   -1.3197    0.6768   -1.1082 C   0  0  0  0  0  0  0  0  0  0  0  0
   -1.3045    1.9362   -1.1310 O   0  0  0  0  0  0  0  0  0  0  0  0
   -0.8443   -0.0279   -2.2106 O   0  0  0  0  0  0  0  0  0  0  0  0
   -4.1449    2.0757   -1.2982 H   0  0  0  0  0  0  0  0  0  0  0  0
   -3.3936   -0.0136    1.4660 H   0  0  0  0  0  0  0  0  0  0  0  0
   -3.0744    1.4838    0.7476 H   0  0  0  0  0  0  0  0  0  0  0  0
   -1.9087   -1.1418   -0.1175 H   0  0  0  0  0  0  0  0  0  0  0  0
   -0.5944    1.1364    1.5063 H   0  0  0  0  0  0  0  0  0  0  0  0
   -1.1708   -0.4165    2.1800 H   0  0  0  0  0  0  0  0  0  0  0  0
    0.0988   -2.7311    1.3161 H   0  0  0  0  0  0  0  0  0  0  0  0
    2.4804   -3.1736    0.4222 H   0  0  0  0  0  0  0  0  0  0  0  0
    4.4972   -1.6262   -0.6021 H   0  0  0  0  0  0  0  0  0  0  0  0
    5.1080    0.7292   -1.1804 H   0  0  0  0  0  0  0  0  0  0  0  0
    3.4950    2.5773   -0.7658 H   0  0  0  0  0  0  0  0  0  0  0  0
    1.2593    2.0943    0.2330 H   0  0  0  0  0  0  0  0  0  0  0  0
   -0.8146   -1.0402   -2.2164 H   0  0  0  0  0  0  0  0  0  0  0  0
  1  2  2  0
  2  3  1  0
  2  4  1  0
  4  5  1  0
  5  6  1  0
  6  7  1  0
  7  8  2  0
  8  9  1  0
  9 10  1  0
 10 11  2  0
 11 12  1  0
 12 13  2  0
 13 14  1  0
 14 15  2  0
  5 16  1  0
 16 17  2  0
 16 18  1  0
 15  7  1  0
 15 10  1  0
  3 19  1  0
  4 20  1  0
  4 21  1  0
  5 22  1  6
  6 23  1  0
  6 24  1  0
  8 25  1  0
  9 26  1  0
 11 27  1  0
 12 28  1  0
 13 29  1  0
 14 30  1  0
 18 31  1  0
M  CHG  1   4   1
M  END
>  <UniqueID>  (11) 
10

>  <SMILES>  (11) 
O=C(O)[NH2+][C@H](Cc1c[nH]c2ccccc12)C(=O)O

>  <Energy>  (11) 
61.21191569300384

>  <Genealogy>  (11) 
O=C(O)[NH2+]C(Cc1c[nH]c2ccccc12)C(=O)O (protonated)
O=C(O)[NH2+][C@H](Cc1c[nH]c2ccccc12)C(=O)O (chirality)
O=C(O)[NH2+][C@H](Cc1c[nH]c2ccccc12)C(=O)O (3D coordinates assigned)
O=C(O)[NH2+][C@H](Cc1c[nH]c2ccccc12)C(=O)O (optimized conformer: 61.21191569300384 kcal/mol)

$$$$
untitled_line_11
     RDKit          3D

 40 42  0  0  0  0  0  0  0  0999 V2000
   -1.5259   -1.0711   -1.9485 O   0  0  0  0  0  0  0  0  0  0  0  0
   -0.8838   -0.6363   -0.9544 C   0  0  0  0  0  0  0  0  0  0  0  0
   -0.8289   -1.3856    0.2167 O   0  0  0  0  0  0  0  0  0  0  0  0
   -0.1433    0.6712   -1.0408 C   0  0  1  0  0  0  0  0  0  0  0  0
    1.1430    0.4886   -1.8750 C   0  0  0  0  0  0  0  0  0  0  0  0
    2.0922   -0.4820   -1.2306 C   0  0  0  0  0  0  0  0  0  0  0  0
    2.2527   -1.8260   -1.5548 C   0  0  0  0  0  0  0  0  0  0  0  0
    3.1382   -2.4110   -0.7161 N   0  0  0  0  0  0  0  0  0  0  0  0
    3.5292   -1.4511    0.1402 C   0  0  0  0  0  0  0  0  0  0  0  0
    4.4224   -1.5792    1.2031 C   0  0  0  0  0  0  0  0  0  0  0  0
    4.6742   -0.4409    1.9910 C   0  0  0  0  0  0  0  0  0  0  0  0
    4.0326    0.7846    1.7042 C   0  0  0  0  0  0  0  0  0  0  0  0
    3.1343    0.8838    0.6262 C   0  0  0  0  0  0  0  0  0  0  0  0
    2.9088   -0.2605   -0.1393 C   0  0  0  0  0  0  0  0  0  0  0  0
   -1.0122    1.6940   -1.6517 N   0  0  0  0  0  0  0  0  0  0  0  0
   -2.0601    2.4202   -0.4642 S   0  0  0  0  0  6  0  0  0  0  0  0
   -2.9446    3.4289   -1.1412 O   0  0  0  0  0  0  0  0  0  0  0  0
   -1.2327    3.1342    0.5693 O   0  0  0  0  0  0  0  0  0  0  0  0
   -3.0763    1.2059    0.3086 C   0  0  0  0  0  0  0  0  0  0  0  0
   -4.1240    0.6149   -0.4116 C   0  0  0  0  0  0  0  0  0  0  0  0
   -4.9157   -0.3725    0.1828 C   0  0  0  0  0  0  0  0  0  0  0  0
   -4.6639   -0.7743    1.4978 C   0  0  0  0  0  0  0  0  0  0  0  0
   -3.6198   -0.1889    2.2197 C   0  0  0  0  0  0  0  0  0  0  0  0
   -2.8263    0.7989    1.6280 C   0  0  0  0  0  0  0  0  0  0  0  0
   -1.3171   -2.2698    0.2908 H   0  0  0  0  0  0  0  0  0  0  0  0
    0.1595    0.9854   -0.0161 H   0  0  0  0  0  0  0  0  0  0  0  0
    0.8869    0.1390   -2.8993 H   0  0  0  0  0  0  0  0  0  0  0  0
    1.6645    1.4645   -1.9783 H   0  0  0  0  0  0  0  0  0  0  0  0
    1.7380   -2.3489   -2.3503 H   0  0  0  0  0  0  0  0  0  0  0  0
    3.4416   -3.4101   -0.7256 H   0  0  0  0  0  0  0  0  0  0  0  0
    4.9048   -2.5238    1.4185 H   0  0  0  0  0  0  0  0  0  0  0  0
    5.3621   -0.5057    2.8240 H   0  0  0  0  0  0  0  0  0  0  0  0
    4.2319    1.6528    2.3188 H   0  0  0  0  0  0  0  0  0  0  0  0
    2.6367    1.8185    0.4026 H   0  0  0  0  0  0  0  0  0  0  0  0
   -0.4245    2.4780   -2.0184 H   0  0  0  0  0  0  0  0  0  0  0  0
   -4.3204    0.9123   -1.4339 H   0  0  0  0  0  0  0  0  0  0  0  0
   -5.7220   -0.8286   -0.3769 H   0  0  0  0  0  0  0  0  0  0  0  0
   -5.2760   -1.5402    1.9562 H   0  0  0  0  0  0  0  0  0  0  0  0
   -3.4226   -0.5037    3.2363 H   0  0  0  0  0  0  0  0  0  0  0  0
   -2.0135    1.2344    2.1944 H   0  0  0  0  0  0  0  0  0  0  0  0
  1  2  2  0
  2  3  1  0
  2  4  1  0
  4  5  1  0
  5  6  1  0
  6  7  2  0
  7  8  1  0
  8  9  1  0
  9 10  2  0
 10 11  1  0
 11 12  2  0
 12 13  1  0
 13 14  2  0
  4 15  1  0
 15 16  1  0
 16 17  2  0
 16 18  2  0
 16 19  1  0
 19 20  2  0
 20 21  1  0
 21 22  2  0
 22 23  1  0
 23 24  2  0
 14  6  1  0
 24 19  1  0
 14  9  1  0
  3 25  1  0
  4 26  1  1
  5 27  1  0
  5 28  1  0
  7 29  1  0
  8 30  1  0
 10 31  1  0
 11 32  1  0
 12 33  1  0
 13 34  1  0
 15 35  1  0
 20 36  1  0
 21 37  1  0
 22 38  1  0
 23 39  1  0
 24 40  1  0
M  END
>  <UniqueID>  (12) 
11

>  <SMILES>  (12) 
O=C(O)[C@@H](Cc1c[nH]c2ccccc12)NS(=O)(=O)c1ccccc1

>  <Energy>  (12) 
70.2491190467076

>  <Genealogy>  (12) 
O=C(O)[C@@H](Cc1c[nH]c2ccccc12)NS(=O)(=O)c1ccccc1 (3D coordinates assigned)
O=C(O)[C@@H](Cc1c[nH]c2ccccc12)NS(=O)(=O)c1ccccc1 (optimized conformer: 70.2491190467076 kcal/mol)

$$$$
untitled_line_12
     RDKit          3D

 30 31  0  0  0  0  0  0  0  0999 V2000
   -1.2505    0.6423   -2.5793 N   0  0  0  0  0  0  0  0  0  0  0  0
   -0.2497    1.5476   -2.1678 N   0  0  0  0  0  4  0  0  0  0  0  0
    1.0715    0.8886   -2.2242 C   0  0  2  0  0  0  0  0  0  0  0  0
    1.1917   -0.2929   -1.2293 C   0  0  0  0  0  0  0  0  0  0  0  0
    1.0552    0.1171    0.2129 C   0  0  0  0  0  0  0  0  0  0  0  0
    2.0577    0.6494    1.0195 C   0  0  0  0  0  0  0  0  0  0  0  0
    1.5744    0.9341    2.2498 N   0  0  0  0  0  0  0  0  0  0  0  0
    0.2763    0.5866    2.2287 C   0  0  0  0  0  0  0  0  0  0  0  0
   -0.6432    0.6966    3.2710 C   0  0  0  0  0  0  0  0  0  0  0  0
   -1.9622    0.2701    3.0322 C   0  0  0  0  0  0  0  0  0  0  0  0
   -2.3279   -0.2526    1.7722 C   0  0  0  0  0  0  0  0  0  0  0  0
   -1.3788   -0.3524    0.7388 C   0  0  0  0  0  0  0  0  0  0  0  0
   -0.0790    0.0824    1.0032 C   0  0  0  0  0  0  0  0  0  0  0  0
    2.1862    1.8870   -2.0099 C   0  0  0  0  0  0  0  0  0  0  0  0
    1.9986    2.9136   -1.3037 O   0  0  0  0  0  0  0  0  0  0  0  0
    3.4485    1.6566   -2.5493 O   0  0  0  0  0  0  0  0  0  0  0  0
   -2.1814    1.0834   -2.3929 H   0  0  0  0  0  0  0  0  0  0  0  0
   -1.1846    0.5216   -3.6178 H   0  0  0  0  0  0  0  0  0  0  0  0
   -0.4628    1.8682   -1.1942 H   0  0  0  0  0  0  0  0  0  0  0  0
   -0.2646    2.3777   -2.8088 H   0  0  0  0  0  0  0  0  0  0  0  0
    1.2114    0.4714   -3.2474 H   0  0  0  0  0  0  0  0  0  0  0  0
    2.1814   -0.7810   -1.3651 H   0  0  0  0  0  0  0  0  0  0  0  0
    0.4313   -1.0654   -1.4700 H   0  0  0  0  0  0  0  0  0  0  0  0
    3.0827    0.8236    0.7192 H   0  0  0  0  0  0  0  0  0  0  0  0
    2.1053    1.3437    3.0503 H   0  0  0  0  0  0  0  0  0  0  0  0
   -0.3531    1.0972    4.2337 H   0  0  0  0  0  0  0  0  0  0  0  0
   -2.7009    0.3417    3.8197 H   0  0  0  0  0  0  0  0  0  0  0  0
   -3.3450   -0.5801    1.6006 H   0  0  0  0  0  0  0  0  0  0  0  0
   -1.6546   -0.7582   -0.2247 H   0  0  0  0  0  0  0  0  0  0  0  0
    3.6407    0.8283   -3.0999 H   0  0  0  0  0  0  0  0  0  0  0  0
  1  2  1  0
  2  3  1  0
  3  4  1  0
  4  5  1  0
  5  6  2  0
  6  7  1  0
  7  8  1  0
  8  9  2  0
  9 10  1  0
 10 11  2  0
 11 12  1  0
 12 13  2  0
  3 14  1  0
 14 15  2  0
 14 16  1  0
 13  5  1  0
 13  8  1  0
  1 17  1  0
  1 18  1  0
  2 19  1  0
  2 20  1  0
  3 21  1  6
  4 22  1  0
  4 23  1  0
  6 24  1  0
  7 25  1  0
  9 26  1  0
 10 27  1  0
 11 28  1  0
 12 29  1  0
 16 30  1  0
M  CHG  1   2   1
M  END
>  <UniqueID>  (13) 
12

>  <SMILES>  (13) 
N[NH2+][C@H](Cc1c[nH]c2ccccc12)C(=O)O

>  <Energy>  (13) 
61.575334416882704

>  <Genealogy>  (13) 
N[NH2+]C(Cc1c[nH]c2ccccc12)C(=O)O (protonated)
N[NH2+][C@H](Cc1c[nH]c2ccccc12)C(=O)O (chirality)
N[NH2+][C@H](Cc1c[nH]c2ccccc12)C(=O)O (3D coordinates assigned)
N[NH2+][C@H](Cc1c[nH]c2ccccc12)C(=O)O (optimized conformer: 61.575334416882704 kcal/mol)

$$$$
untitled_line_13
     RDKit          3D

 45 49  0  0  0  0  0  0  0  0999 V2000
    0.7801   -0.4396   -1.9930 O   0  0  0  0  0  0  0  0  0  0  0  0
    0.5573    0.0359   -0.8474 C   0  0  0  0  0  0  0  0  0  0  0  0
    0.4982    1.4159   -0.6741 O   0  0  0  0  0  0  0  0  0  0  0  0
    0.3312   -0.8980    0.3265 C   0  0  1  0  0  0  0  0  0  0  0  0
    1.2470   -0.5302    1.5177 C   0  0  0  0  0  0  0  0  0  0  0  0
    2.6956   -0.7715    1.1951 C   0  0  0  0  0  0  0  0  0  0  0  0
    3.3333   -2.0080    1.1503 C   0  0  0  0  0  0  0  0  0  0  0  0
    4.6194   -1.8629    0.7587 N   0  0  0  0  0  0  0  0  0  0  0  0
    4.7977   -0.5473    0.5483 C   0  0  0  0  0  0  0  0  0  0  0  0
    5.9623    0.0881    0.1194 C   0  0  0  0  0  0  0  0  0  0  0  0
    5.9263    1.4842   -0.0484 C   0  0  0  0  0  0  0  0  0  0  0  0
    4.7408    2.2058    0.2130 C   0  0  0  0  0  0  0  0  0  0  0  0
    3.5800    1.5385    0.6442 C   0  0  0  0  0  0  0  0  0  0  0  0
    3.6451    0.1530    0.8011 C   0  0  0  0  0  0  0  0  0  0  0  0
   -1.0987   -0.9725    0.7371 N   0  0  0  0  0  4  0  0  0  0  0  0
   -1.7008    0.3078    0.9995 C   0  0  0  0  0  0  0  0  0  0  0  0
   -1.3777    0.9980    1.9548 O   0  0  0  0  0  0  0  0  0  0  0  0
   -2.8038    0.7028    0.0656 C   0  0  2  0  0  0  0  0  0  0  0  0
   -4.1813    0.7188    0.7514 C   0  0  1  0  0  0  0  0  0  0  0  0
   -5.2304    1.2385   -0.2382 C   0  0  0  0  0  0  0  0  0  0  0  0
   -5.3839    0.0221   -1.1481 C   0  0  0  0  0  0  0  0  0  0  0  0
   -4.3910   -0.9454   -0.4940 C   0  0  2  0  0  0  0  0  0  0  0  0
   -4.5038   -0.6369    0.8650 O   0  0  0  0  0  0  0  0  0  0  0  0
   -2.9571   -0.5092   -0.8422 C   0  0  2  0  0  0  0  0  0  0  0  0
   -1.9245   -1.4660   -0.3309 C   0  0  0  0  0  0  0  0  0  0  0  0
   -1.8050   -2.5988   -0.7750 O   0  0  0  0  0  0  0  0  0  0  0  0
    0.6415    2.0445   -1.4551 H   0  0  0  0  0  0  0  0  0  0  0  0
    0.6411   -1.9205    0.0049 H   0  0  0  0  0  0  0  0  0  0  0  0
    1.1045    0.5286    1.8166 H   0  0  0  0  0  0  0  0  0  0  0  0
    0.9817   -1.1579    2.3955 H   0  0  0  0  0  0  0  0  0  0  0  0
    2.8759   -2.9617    1.3794 H   0  0  0  0  0  0  0  0  0  0  0  0
    5.3245   -2.6231    0.6349 H   0  0  0  0  0  0  0  0  0  0  0  0
    6.8655   -0.4738   -0.0804 H   0  0  0  0  0  0  0  0  0  0  0  0
    6.8130    2.0085   -0.3802 H   0  0  0  0  0  0  0  0  0  0  0  0
    4.7251    3.2799    0.0813 H   0  0  0  0  0  0  0  0  0  0  0  0
    2.6723    2.0896    0.8490 H   0  0  0  0  0  0  0  0  0  0  0  0
   -1.2218   -1.5947    1.5704 H   0  0  0  0  0  0  0  0  0  0  0  0
   -2.5598    1.6383   -0.4844 H   0  0  0  0  0  0  0  0  0  0  0  0
   -4.1978    1.2473    1.7289 H   0  0  0  0  0  0  0  0  0  0  0  0
   -6.1842    1.4570    0.2897 H   0  0  0  0  0  0  0  0  0  0  0  0
   -4.8864    2.1390   -0.7928 H   0  0  0  0  0  0  0  0  0  0  0  0
   -5.1251    0.2511   -2.2052 H   0  0  0  0  0  0  0  0  0  0  0  0
   -6.4166   -0.3856   -1.0880 H   0  0  0  0  0  0  0  0  0  0  0  0
   -4.6078   -2.0135   -0.7112 H   0  0  0  0  0  0  0  0  0  0  0  0
   -2.8018   -0.2758   -1.9186 H   0  0  0  0  0  0  0  0  0  0  0  0
  1  2  2  0
  2  3  1  0
  2  4  1  0
  4  5  1  0
  5  6  1  0
  6  7  2  0
  7  8  1  0
  8  9  1  0
  9 10  2  0
 10 11  1  0
 11 12  2  0
 12 13  1  0
 13 14  2  0
  4 15  1  0
 15 16  1  0
 16 17  2  0
 16 18  1  0
 18 19  1  0
 19 20  1  0
 20 21  1  0
 21 22  1  0
 22 23  1  0
 22 24  1  0
 24 25  1  0
 25 26  2  0
 14  6  1  0
 25 15  1  0
 14  9  1  0
 24 18  1  0
 23 19  1  0
  3 27  1  0
  4 28  1  6
  5 29  1  0
  5 30  1  0
  7 31  1  0
  8 32  1  0
 10 33  1  0
 11 34  1  0
 12 35  1  0
 13 36  1  0
 15 37  1  0
 18 38  1  6
 19 39  1  1
 20 40  1  0
 20 41  1  0
 21 42  1  0
 21 43  1  0
 22 44  1  1
 24 45  1  6
M  CHG  1  15   1
M  END
>  <UniqueID>  (14) 
13

>  <SMILES>  (14) 
O=C(O)[C@@H](Cc1c[nH]c2ccccc12)[NH+]1C(=O)[C@@H]2[C@H]3CC[C@H](O3)[C@@H]2C1=O

>  <Energy>  (14) 
108.04926383537409

>  <Genealogy>  (14) 
O=C(O)[C@@H](Cc1c[nH]c2ccccc12)[NH+]1C(=O)[C@@H]2[C@H]3CC[C@H](O3)[C@@H]2C1=O (protonated)
O=C(O)[C@@H](Cc1c[nH]c2ccccc12)[NH+]1C(=O)[C@@H]2[C@H]3CC[C@H](O3)[C@@H]2C1=O (3D coordinates assigned)
O=C(O)[C@@H](Cc1c[nH]c2ccccc12)[NH+]1C(=O)[C@@H]2[C@H]3CC[C@H](O3)[C@@H]2C1=O (nonaromatic ring conformer: 108.04926383537409 kcal/mol)

$$$$
untitled_line_14
     RDKit          3D

 60 64  0  0  0  0  0  0  0  0999 V2000
   -4.7009    2.3167   -1.1024 H   0  0  0  0  0  0  0  0  0  0  0  0
   -4.2906    1.8040   -1.8732 O   0  0  0  0  0  0  0  0  0  0  0  0
   -3.0572    1.1740   -1.7355 C   0  0  0  0  0  0  0  0  0  0  0  0
   -2.4338    1.2560   -0.6436 O   0  0  0  0  0  0  0  0  0  0  0  0
   -2.4713    0.4182   -2.9078 C   0  0  2  0  0  0  0  0  0  0  0  0
   -3.3323    0.1835   -3.5747 H   0  0  0  0  0  0  0  0  0  0  0  0
   -1.8634   -0.9447   -2.4725 C   0  0  0  0  0  0  0  0  0  0  0  0
   -0.9914   -0.7829   -1.8111 H   0  0  0  0  0  0  0  0  0  0  0  0
   -1.5005   -1.4967   -3.3645 H   0  0  0  0  0  0  0  0  0  0  0  0
   -2.8603   -1.8129   -1.7600 C   0  0  0  0  0  0  0  0  0  0  0  0
   -3.9301   -2.4912   -2.3350 C   0  0  0  0  0  0  0  0  0  0  0  0
   -4.1832   -2.4942   -3.3878 H   0  0  0  0  0  0  0  0  0  0  0  0
   -4.6317   -3.1542   -1.3876 N   0  0  0  0  0  0  0  0  0  0  0  0
   -5.4818   -3.7426   -1.5368 H   0  0  0  0  0  0  0  0  0  0  0  0
   -4.0162   -2.8970   -0.2201 C   0  0  0  0  0  0  0  0  0  0  0  0
   -4.3770   -3.3597    1.0441 C   0  0  0  0  0  0  0  0  0  0  0  0
   -5.2360   -4.0032    1.1809 H   0  0  0  0  0  0  0  0  0  0  0  0
   -3.5872   -2.9647    2.1398 C   0  0  0  0  0  0  0  0  0  0  0  0
   -3.8391   -3.3064    3.1352 H   0  0  0  0  0  0  0  0  0  0  0  0
   -2.4691   -2.1233    1.9491 C   0  0  0  0  0  0  0  0  0  0  0  0
   -1.8674   -1.8255    2.7986 H   0  0  0  0  0  0  0  0  0  0  0  0
   -2.1316   -1.6686    0.6626 C   0  0  0  0  0  0  0  0  0  0  0  0
   -1.2788   -1.0204    0.5161 H   0  0  0  0  0  0  0  0  0  0  0  0
   -2.9312   -2.0798   -0.4059 C   0  0  0  0  0  0  0  0  0  0  0  0
   -1.5111    1.2767   -3.6641 N   0  0  1  0  0  4  0  0  0  0  0  0
   -1.9205    2.2298   -3.8210 H   0  0  0  0  0  0  0  0  0  0  0  0
   -0.2608    1.4335   -2.9737 C   0  0  0  0  0  0  0  0  0  0  0  0
   -0.1585    2.1719   -1.9574 O   0  0  0  0  0  0  0  0  0  0  0  0
    0.8797    0.7290   -3.5541 C   0  0  0  0  0  0  0  0  0  0  0  0
    1.9038    0.1934   -2.8741 C   0  0  0  0  0  0  0  0  0  0  0  0
    2.6011   -0.4426   -3.4048 H   0  0  0  0  0  0  0  0  0  0  0  0
    2.0232    0.2507   -1.4008 C   0  0  0  0  0  0  0  0  0  0  0  0
    2.4063    1.4522   -0.8081 C   0  0  0  0  0  0  0  0  0  0  0  0
    2.6143    2.3200   -1.4231 H   0  0  0  0  0  0  0  0  0  0  0  0
    2.5059    1.5651    0.5728 C   0  0  0  0  0  0  0  0  0  0  0  0
    2.7687    2.5345    0.9687 H   0  0  0  0  0  0  0  0  0  0  0  0
    2.2747    0.4621    1.4240 C   0  0  0  0  0  0  0  0  0  0  0  0
    2.4058    0.6136    2.8735 N   0  0  0  0  0  4  0  0  0  0  0  0
    2.6491   -0.3033    3.3079 H   0  0  0  0  0  0  0  0  0  0  0  0
    3.5134    1.5049    3.2749 C   0  0  0  0  0  0  0  0  0  0  0  0
    3.7446    1.3660    4.3545 H   0  0  0  0  0  0  0  0  0  0  0  0
    3.2577    2.5776    3.1329 H   0  0  0  0  0  0  0  0  0  0  0  0
    4.4368    1.2660    2.7017 H   0  0  0  0  0  0  0  0  0  0  0  0
    1.1338    1.0823    3.4457 C   0  0  0  0  0  0  0  0  0  0  0  0
    1.2064    1.1463    4.5537 H   0  0  0  0  0  0  0  0  0  0  0  0
    0.8627    2.0854    3.0466 H   0  0  0  0  0  0  0  0  0  0  0  0
    0.3121    0.3725    3.2043 H   0  0  0  0  0  0  0  0  0  0  0  0
    1.8335   -0.7649    0.8328 C   0  0  0  0  0  0  0  0  0  0  0  0
    1.4446   -1.8814    1.6133 C   0  0  0  0  0  0  0  0  0  0  0  0
    1.4059   -1.8566    2.6904 H   0  0  0  0  0  0  0  0  0  0  0  0
    1.0435   -3.0747    1.0135 C   0  0  0  0  0  0  0  0  0  0  0  0
    0.7482   -3.9162    1.6280 H   0  0  0  0  0  0  0  0  0  0  0  0
    1.0082   -3.1875   -0.3699 C   0  0  0  0  0  0  0  0  0  0  0  0
    0.6910   -4.1158   -0.8277 H   0  0  0  0  0  0  0  0  0  0  0  0
    1.3532   -2.1012   -1.1677 C   0  0  0  0  0  0  0  0  0  0  0  0
    1.2846   -2.2249   -2.2406 H   0  0  0  0  0  0  0  0  0  0  0  0
    1.7492   -0.8748   -0.5894 C   0  0  0  0  0  0  0  0  0  0  0  0
    0.5653    0.2767   -5.2410 S   0  0  0  0  0  0  0  0  0  0  0  0
   -1.1615    0.6886   -4.9448 C   0  0  0  0  0  0  0  0  0  0  0  0
   -2.0654    0.7436   -6.0653 S   0  0  0  0  0  0  0  0  0  0  0  0
  1  2  1  0
  2  3  1  0
  3  4  2  0
  3  5  1  0
  5  6  1  6
  5  7  1  0
  7  8  1  0
  7  9  1  0
  7 10  1  0
 10 11  2  0
 11 12  1  0
 11 13  1  0
 13 14  1  0
 13 15  1  0
 15 16  2  0
 16 17  1  0
 16 18  1  0
 18 19  1  0
 18 20  2  0
 20 21  1  0
 20 22  1  0
 22 23  1  0
 22 24  2  0
  5 25  1  0
 25 26  1  6
 25 27  1  0
 27 28  2  0
 27 29  1  0
 29 30  2  0
 30 31  1  0
 30 32  1  0
 32 33  2  0
 33 34  1  0
 33 35  1  0
 35 36  1  0
 35 37  2  0
 37 38  1  0
 38 39  1  0
 38 40  1  0
 40 41  1  0
 40 42  1  0
 40 43  1  0
 38 44  1  0
 44 45  1  0
 44 46  1  0
 44 47  1  0
 37 48  1  0
 48 49  2  0
 49 50  1  0
 49 51  1  0
 51 52  1  0
 51 53  2  0
 53 54  1  0
 53 55  1  0
 55 56  1  0
 55 57  2  0
 29 58  1  0
 58 59  1  0
 59 60  2  0
 24 10  1  0
 59 25  1  0
 24 15  1  0
 57 32  1  0
 57 48  1  0
M  CHG  2  25   1  38   1
M  END
>  <UniqueID>  (15) 
14

>  <SMILES>  (15) 
C[NH+](C)c1ccc(/C=C2\SC(=S)[N@@H+]([C@@H](Cc3c[nH]c4ccccc34)C(=O)O)C2=O)c2ccccc12

>  <Energy>  (15) 
137.1743148339936

>  <Genealogy>  (15) 
C[NH+](C)c1ccc(/C=C2\SC(=S)[NH+]([C@@H](Cc3c[nH]c4ccccc34)C(=O)O)C2=O)c2ccccc12 (protonated)
C[NH+](C)c1ccc(/C=C2\SC(=S)[N@@H+]([C@@H](Cc3c[nH]c4ccccc34)C(=O)O)C2=O)c2ccccc12 (chirality)
C[NH+](C)c1ccc(/C=C2\SC(=S)[N@@H+]([C@@H](Cc3c[nH]c4ccccc34)C(=O)O)C2=O)c2ccccc12 (cis-trans isomerization)
C[NH+](C)c1ccc(/C=C2\SC(=S)[N@@H+]([C@@H](Cc3c[nH]c4ccccc34)C(=O)O)C2=O)c2ccccc12 (3D coordinates assigned)
C[NH+](C)c1ccc(/C=C2\SC(=S)[N@@H+]([C@@H](Cc3c[nH]c4ccccc34)C(=O)O)C2=O)c2ccccc12 (nonaromatic ring conformer: 137.1743148339936 kcal/mol)

$$$$
untitled_line_15
     RDKit          3D

 35 36  0  0  0  0  0  0  0  0999 V2000
    5.0319   -1.2920   -0.2380 N   0  0  0  0  0  4  0  0  0  0  0  0
    4.3425   -0.3800    0.6727 C   0  0  0  0  0  0  0  0  0  0  0  0
    2.8582   -0.4450    0.4627 C   0  0  0  0  0  0  0  0  0  0  0  0
    2.1589   -1.1856    1.2060 O   0  0  0  0  0  0  0  0  0  0  0  0
    2.2497    0.2965   -0.6048 N   0  0  0  0  0  0  0  0  0  0  0  0
    0.8002    0.3002   -0.8274 C   0  0  1  0  0  0  0  0  0  0  0  0
    0.1302    1.3121    0.1179 C   0  0  0  0  0  0  0  0  0  0  0  0
   -1.3673    1.2286    0.0423 C   0  0  0  0  0  0  0  0  0  0  0  0
   -2.2081    2.0457   -0.7076 C   0  0  0  0  0  0  0  0  0  0  0  0
   -3.4909    1.6311   -0.5963 N   0  0  0  0  0  0  0  0  0  0  0  0
   -3.4650    0.5537    0.2076 C   0  0  0  0  0  0  0  0  0  0  0  0
   -4.5462   -0.2336    0.6011 C   0  0  0  0  0  0  0  0  0  0  0  0
   -4.2872   -1.3360    1.4364 C   0  0  0  0  0  0  0  0  0  0  0  0
   -2.9682   -1.6252    1.8518 C   0  0  0  0  0  0  0  0  0  0  0  0
   -1.8962   -0.8141    1.4372 C   0  0  0  0  0  0  0  0  0  0  0  0
   -2.1853    0.2742    0.6138 C   0  0  0  0  0  0  0  0  0  0  0  0
    0.4942    0.6226   -2.2701 C   0  0  0  0  0  0  0  0  0  0  0  0
    0.9806    1.6539   -2.8060 O   0  0  0  0  0  0  0  0  0  0  0  0
   -0.3605   -0.1885   -3.0120 O   0  0  0  0  0  0  0  0  0  0  0  0
    4.7173   -2.2750   -0.0670 H   0  0  0  0  0  0  0  0  0  0  0  0
    6.0618   -1.2312   -0.0683 H   0  0  0  0  0  0  0  0  0  0  0  0
    4.8357   -1.0254   -1.2304 H   0  0  0  0  0  0  0  0  0  0  0  0
    4.6958    0.6602    0.4999 H   0  0  0  0  0  0  0  0  0  0  0  0
    4.5845   -0.6494    1.7248 H   0  0  0  0  0  0  0  0  0  0  0  0
    2.8608    0.9179   -1.1825 H   0  0  0  0  0  0  0  0  0  0  0  0
    0.4044   -0.7162   -0.6083 H   0  0  0  0  0  0  0  0  0  0  0  0
    0.4622    2.3441   -0.1299 H   0  0  0  0  0  0  0  0  0  0  0  0
    0.4425    1.1078    1.1645 H   0  0  0  0  0  0  0  0  0  0  0  0
   -1.8954    2.8870   -1.3124 H   0  0  0  0  0  0  0  0  0  0  0  0
   -4.3269    2.0553   -1.0564 H   0  0  0  0  0  0  0  0  0  0  0  0
   -5.5524   -0.0076    0.2728 H   0  0  0  0  0  0  0  0  0  0  0  0
   -5.1038   -1.9680    1.7603 H   0  0  0  0  0  0  0  0  0  0  0  0
   -2.7807   -2.4774    2.4920 H   0  0  0  0  0  0  0  0  0  0  0  0
   -0.8828   -1.0316    1.7486 H   0  0  0  0  0  0  0  0  0  0  0  0
   -0.7944   -1.0092   -2.6068 H   0  0  0  0  0  0  0  0  0  0  0  0
  1  2  1  0
  2  3  1  0
  3  4  2  0
  3  5  1  0
  5  6  1  0
  6  7  1  0
  7  8  1  0
  8  9  2  0
  9 10  1  0
 10 11  1  0
 11 12  2  0
 12 13  1  0
 13 14  2  0
 14 15  1  0
 15 16  2  0
  6 17  1  0
 17 18  2  0
 17 19  1  0
 16  8  1  0
 16 11  1  0
  1 20  1  0
  1 21  1  0
  1 22  1  0
  2 23  1  0
  2 24  1  0
  5 25  1  0
  6 26  1  1
  7 27  1  0
  7 28  1  0
  9 29  1  0
 10 30  1  0
 12 31  1  0
 13 32  1  0
 14 33  1  0
 15 34  1  0
 19 35  1  0
M  CHG  1   1   1
M  END
>  <UniqueID>  (16) 
15

>  <SMILES>  (16) 
[NH3+]CC(=O)N[C@@H](Cc1c[nH]c2ccccc12)C(=O)O

>  <Energy>  (16) 
60.12430929561724

>  <Genealogy>  (16) 
[NH3+]CC(=O)N[C@@H](Cc1c[nH]c2ccccc12)C(=O)O (protonated)
[NH3+]CC(=O)N[C@@H](Cc1c[nH]c2ccccc12)C(=O)O (3D coordinates assigned)
[NH3+]CC(=O)N[C@@H](Cc1c[nH]c2ccccc12)C(=O)O (optimized conformer: 60.12430929561724 kcal/mol)

$$$$
untitled_line_16
     RDKit          3D

 54 58  0  0  0  0  0  0  0  0999 V2000
   -3.6306   -3.3477    1.5831 H   0  0  0  0  0  0  0  0  0  0  0  0
   -3.7393   -2.7994    0.7385 O   0  0  0  0  0  0  0  0  0  0  0  0
   -2.7492   -2.7902   -0.2391 C   0  0  0  0  0  0  0  0  0  0  0  0
   -1.6961   -3.4619   -0.0673 O   0  0  0  0  0  0  0  0  0  0  0  0
   -2.9316   -1.9442   -1.4831 C   0  0  2  0  0  0  0  0  0  0  0  0
   -4.0320   -1.8235   -1.6150 H   0  0  0  0  0  0  0  0  0  0  0  0
   -2.4401   -2.7059   -2.7391 C   0  0  0  0  0  0  0  0  0  0  0  0
   -1.3441   -2.8666   -2.7001 H   0  0  0  0  0  0  0  0  0  0  0  0
   -2.9094   -3.7139   -2.7588 H   0  0  0  0  0  0  0  0  0  0  0  0
   -2.8233   -2.0017   -4.0114 C   0  0  0  0  0  0  0  0  0  0  0  0
   -4.1163   -1.8198   -4.4946 C   0  0  0  0  0  0  0  0  0  0  0  0
   -5.0217   -2.1881   -4.0286 H   0  0  0  0  0  0  0  0  0  0  0  0
   -4.0971   -1.0976   -5.6374 N   0  0  0  0  0  0  0  0  0  0  0  0
   -4.9222   -0.8110   -6.2102 H   0  0  0  0  0  0  0  0  0  0  0  0
   -2.8046   -0.8217   -5.8813 C   0  0  0  0  0  0  0  0  0  0  0  0
   -2.2860   -0.0895   -6.9485 C   0  0  0  0  0  0  0  0  0  0  0  0
   -2.9348    0.3319   -7.7052 H   0  0  0  0  0  0  0  0  0  0  0  0
   -0.8918    0.0867   -7.0095 C   0  0  0  0  0  0  0  0  0  0  0  0
   -0.4563    0.6480   -7.8259 H   0  0  0  0  0  0  0  0  0  0  0  0
   -0.0569   -0.4658   -6.0133 C   0  0  0  0  0  0  0  0  0  0  0  0
    1.0150   -0.3262   -6.0718 H   0  0  0  0  0  0  0  0  0  0  0  0
   -0.6081   -1.1987   -4.9465 C   0  0  0  0  0  0  0  0  0  0  0  0
    0.0315   -1.6276   -4.1882 H   0  0  0  0  0  0  0  0  0  0  0  0
   -1.9945   -1.3571   -4.9116 C   0  0  0  0  0  0  0  0  0  0  0  0
   -2.3177   -0.5891   -1.3531 N   0  0  2  0  0  4  0  0  0  0  0  0
   -2.3052   -0.0932   -2.2764 H   0  0  0  0  0  0  0  0  0  0  0  0
   -0.9672   -0.6113   -0.8597 C   0  0  0  0  0  0  0  0  0  0  0  0
   -0.0119   -1.0424   -1.5617 O   0  0  0  0  0  0  0  0  0  0  0  0
   -0.7599   -0.0344    0.4655 C   0  0  0  0  0  0  0  0  0  0  0  0
    0.4457    0.1061    1.0342 C   0  0  0  0  0  0  0  0  0  0  0  0
    1.3207   -0.2709    0.5187 H   0  0  0  0  0  0  0  0  0  0  0  0
    0.6478    0.7132    2.3697 C   0  0  0  0  0  0  0  0  0  0  0  0
    0.2232    2.0310    2.5816 C   0  0  0  0  0  0  0  0  0  0  0  0
   -0.2624    2.5837    1.7862 H   0  0  0  0  0  0  0  0  0  0  0  0
    0.4310    2.6603    3.8048 C   0  0  0  0  0  0  0  0  0  0  0  0
    0.0846    3.6791    3.9283 H   0  0  0  0  0  0  0  0  0  0  0  0
    1.0830    1.9977    4.8535 C   0  0  0  0  0  0  0  0  0  0  0  0
    1.2833    2.7302    6.1569 C   0  0  0  0  0  0  0  0  0  0  0  0
    0.8548    3.7544    6.1257 H   0  0  0  0  0  0  0  0  0  0  0  0
    2.3683    2.8216    6.3746 H   0  0  0  0  0  0  0  0  0  0  0  0
    0.7829    2.1783    6.9802 H   0  0  0  0  0  0  0  0  0  0  0  0
    1.5377    0.6675    4.6606 C   0  0  0  0  0  0  0  0  0  0  0  0
    2.2045   -0.0378    5.6867 C   0  0  0  0  0  0  0  0  0  0  0  0
    2.3966    0.4119    6.6513 H   0  0  0  0  0  0  0  0  0  0  0  0
    2.6392   -1.3478    5.4857 C   0  0  0  0  0  0  0  0  0  0  0  0
    3.1481   -1.8761    6.2820 H   0  0  0  0  0  0  0  0  0  0  0  0
    2.4164   -1.9811    4.2667 C   0  0  0  0  0  0  0  0  0  0  0  0
    2.7500   -3.0005    4.1202 H   0  0  0  0  0  0  0  0  0  0  0  0
    1.7617   -1.3085    3.2354 C   0  0  0  0  0  0  0  0  0  0  0  0
    1.5990   -1.8428    2.3087 H   0  0  0  0  0  0  0  0  0  0  0  0
    1.3195    0.0216    3.4080 C   0  0  0  0  0  0  0  0  0  0  0  0
   -2.2995    0.4379    1.2311 S   0  0  0  0  0  0  0  0  0  0  0  0
   -3.0471    0.2080   -0.3853 C   0  0  0  0  0  0  0  0  0  0  0  0
   -4.1356    1.0620   -0.7871 S   0  0  0  0  0  0  0  0  0  0  0  0
  1  2  1  0
  2  3  1  0
  3  4  2  0
  3  5  1  0
  5  6  1  6
  5  7  1  0
  7  8  1  0
  7  9  1  0
  7 10  1  0
 10 11  2  0
 11 12  1  0
 11 13  1  0
 13 14  1  0
 13 15  1  0
 15 16  2  0
 16 17  1  0
 16 18  1  0
 18 19  1  0
 18 20  2  0
 20 21  1  0
 20 22  1  0
 22 23  1  0
 22 24  2  0
  5 25  1  0
 25 26  1  6
 25 27  1  0
 27 28  2  0
 27 29  1  0
 29 30  2  0
 30 31  1  0
 30 32  1  0
 32 33  2  0
 33 34  1  0
 33 35  1  0
 35 36  1  0
 35 37  2  0
 37 38  1  0
 38 39  1  0
 38 40  1  0
 38 41  1  0
 37 42  1  0
 42 43  2  0
 43 44  1  0
 43 45  1  0
 45 46  1  0
 45 47  2  0
 47 48  1  0
 47 49  1  0
 49 50  1  0
 49 51  2  0
 29 52  1  0
 52 53  1  0
 53 54  2  0
 24 10  1  0
 53 25  1  0
 24 15  1  0
 51 32  1  0
 51 42  1  0
M  CHG  1  25   1
M  END
>  <UniqueID>  (17) 
16

>  <SMILES>  (17) 
Cc1ccc(/C=C2\SC(=S)[N@H+]([C@@H](Cc3c[nH]c4ccccc34)C(=O)O)C2=O)c2ccccc12

>  <Energy>  (17) 
124.45531685142296

>  <Genealogy>  (17) 
Cc1ccc(/C=C2\SC(=S)[NH+]([C@@H](Cc3c[nH]c4ccccc34)C(=O)O)C2=O)c2ccccc12 (protonated)
Cc1ccc(/C=C2\SC(=S)[N@H+]([C@@H](Cc3c[nH]c4ccccc34)C(=O)O)C2=O)c2ccccc12 (chirality)
Cc1ccc(/C=C2\SC(=S)[N@H+]([C@@H](Cc3c[nH]c4ccccc34)C(=O)O)C2=O)c2ccccc12 (cis-trans isomerization)
Cc1ccc(/C=C2\SC(=S)[N@H+]([C@@H](Cc3c[nH]c4ccccc34)C(=O)O)C2=O)c2ccccc12 (3D coordinates assigned)
Cc1ccc(/C=C2\SC(=S)[N@H+]([C@@H](Cc3c[nH]c4ccccc34)C(=O)O)C2=O)c2ccccc12 (nonaromatic ring conformer: 124.45531685142296 kcal/mol)

$$$$
untitled_line_17
     RDKit          3D

 54 57  0  0  0  0  0  0  0  0999 V2000
   -5.5513    0.5407   -4.0686 H   0  0  0  0  0  0  0  0  0  0  0  0
   -4.9319    0.0763   -3.4151 O   0  0  0  0  0  0  0  0  0  0  0  0
   -3.8019    0.7202   -2.9216 C   0  0  0  0  0  0  0  0  0  0  0  0
   -3.5408    1.8965   -3.2922 O   0  0  0  0  0  0  0  0  0  0  0  0
   -2.8808   -0.0121   -1.9744 C   0  0  2  0  0  0  0  0  0  0  0  0
   -3.4838   -0.8460   -1.5443 H   0  0  0  0  0  0  0  0  0  0  0  0
   -2.4509    0.8961   -0.7884 C   0  0  0  0  0  0  0  0  0  0  0  0
   -1.6948    0.3796   -0.1612 H   0  0  0  0  0  0  0  0  0  0  0  0
   -1.9832    1.8334   -1.1598 H   0  0  0  0  0  0  0  0  0  0  0  0
   -3.6181    1.2393    0.0908 C   0  0  0  0  0  0  0  0  0  0  0  0
   -4.3999    2.3890    0.0280 C   0  0  0  0  0  0  0  0  0  0  0  0
   -4.2480    3.2194   -0.6491 H   0  0  0  0  0  0  0  0  0  0  0  0
   -5.4048    2.3251    0.9309 N   0  0  0  0  0  0  0  0  0  0  0  0
   -6.1430    3.0451    1.0965 H   0  0  0  0  0  0  0  0  0  0  0  0
   -5.2691    1.1417    1.5550 C   0  0  0  0  0  0  0  0  0  0  0  0
   -6.0802    0.6182    2.5606 C   0  0  0  0  0  0  0  0  0  0  0  0
   -6.9283    1.1728    2.9422 H   0  0  0  0  0  0  0  0  0  0  0  0
   -5.7620   -0.6562    3.0649 C   0  0  0  0  0  0  0  0  0  0  0  0
   -6.3702   -1.0906    3.8481 H   0  0  0  0  0  0  0  0  0  0  0  0
   -4.6560   -1.3730    2.5551 C   0  0  0  0  0  0  0  0  0  0  0  0
   -4.4225   -2.3538    2.9484 H   0  0  0  0  0  0  0  0  0  0  0  0
   -3.8560   -0.8200    1.5390 C   0  0  0  0  0  0  0  0  0  0  0  0
   -3.0082   -1.3638    1.1420 H   0  0  0  0  0  0  0  0  0  0  0  0
   -4.1927    0.4482    1.0649 C   0  0  0  0  0  0  0  0  0  0  0  0
   -1.7348   -0.6090   -2.7149 N   0  0  2  0  0  4  0  0  0  0  0  0
   -2.0917   -1.1568   -3.5360 H   0  0  0  0  0  0  0  0  0  0  0  0
   -1.0050   -1.5301   -1.8899 C   0  0  0  0  0  0  0  0  0  0  0  0
   -1.5120   -2.6236   -1.5161 O   0  0  0  0  0  0  0  0  0  0  0  0
    0.3569   -1.1370   -1.5360 C   0  0  0  0  0  0  0  0  0  0  0  0
    1.1688   -1.8903   -0.7758 C   0  0  0  0  0  0  0  0  0  0  0  0
    0.7853   -2.8175   -0.3684 H   0  0  0  0  0  0  0  0  0  0  0  0
    2.5291   -1.4904   -0.3584 C   0  0  0  0  0  0  0  0  0  0  0  0
    2.9227   -1.7079    0.9698 C   0  0  0  0  0  0  0  0  0  0  0  0
    2.2289   -2.1353    1.6835 H   0  0  0  0  0  0  0  0  0  0  0  0
    4.2067   -1.3563    1.3934 C   0  0  0  0  0  0  0  0  0  0  0  0
    4.4832   -1.5098    2.4297 H   0  0  0  0  0  0  0  0  0  0  0  0
    5.1257   -0.8036    0.4891 C   0  0  0  0  0  0  0  0  0  0  0  0
    6.4913   -0.3803    0.9598 C   0  0  0  0  0  0  0  0  0  0  0  0
    6.8626   -1.1011    1.7230 H   0  0  0  0  0  0  0  0  0  0  0  0
    7.2089   -0.3979    0.1087 H   0  0  0  0  0  0  0  0  0  0  0  0
    6.4384    1.0283    1.5604 C   0  0  0  0  0  0  0  0  0  0  0  0
    6.0665    1.7472    0.7979 H   0  0  0  0  0  0  0  0  0  0  0  0
    5.7390    1.0413    2.4255 H   0  0  0  0  0  0  0  0  0  0  0  0
    7.8165    1.4786    2.0356 C   0  0  0  0  0  0  0  0  0  0  0  0
    7.7471    2.5046    2.4519 H   0  0  0  0  0  0  0  0  0  0  0  0
    8.1924    0.7984    2.8273 H   0  0  0  0  0  0  0  0  0  0  0  0
    8.5334    1.4874    1.1887 H   0  0  0  0  0  0  0  0  0  0  0  0
    4.7415   -0.6050   -0.8463 C   0  0  0  0  0  0  0  0  0  0  0  0
    5.4374   -0.1816   -1.5599 H   0  0  0  0  0  0  0  0  0  0  0  0
    3.4591   -0.9620   -1.2711 C   0  0  0  0  0  0  0  0  0  0  0  0
    3.2018   -0.8396   -2.3146 H   0  0  0  0  0  0  0  0  0  0  0  0
    0.7333    0.5049   -2.1259 S   0  0  0  0  0  0  0  0  0  0  0  0
   -0.7516    0.3748   -3.1308 C   0  0  0  0  0  0  0  0  0  0  0  0
   -0.7030    0.8435   -4.4918 S   0  0  0  0  0  0  0  0  0  0  0  0
  1  2  1  0
  2  3  1  0
  3  4  2  0
  3  5  1  0
  5  6  1  1
  5  7  1  0
  7  8  1  0
  7  9  1  0
  7 10  1  0
 10 11  2  0
 11 12  1  0
 11 13  1  0
 13 14  1  0
 13 15  1  0
 15 16  2  0
 16 17  1  0
 16 18  1  0
 18 19  1  0
 18 20  2  0
 20 21  1  0
 20 22  1  0
 22 23  1  0
 22 24  2  0
  5 25  1  0
 25 26  1  6
 25 27  1  0
 27 28  2  0
 27 29  1  0
 29 30  2  0
 30 31  1  0
 30 32  1  0
 32 33  2  0
 33 34  1  0
 33 35  1  0
 35 36  1  0
 35 37  2  0
 37 38  1  0
 38 39  1  0
 38 40  1  0
 38 41  1  0
 41 42  1  0
 41 43  1  0
 41 44  1  0
 44 45  1  0
 44 46  1  0
 44 47  1  0
 37 48  1  0
 48 49  1  0
 48 50  2  0
 50 51  1  0
 29 52  1  0
 52 53  1  0
 53 54  2  0
 24 10  1  0
 53 25  1  0
 24 15  1  0
 50 32  1  0
M  CHG  1  25   1
M  END
>  <UniqueID>  (18) 
17

>  <SMILES>  (18) 
CCCc1ccc(/C=C2\SC(=S)[N@H+]([C@@H](Cc3c[nH]c4ccccc34)C(=O)O)C2=O)cc1

>  <Energy>  (18) 
108.67884383980234

>  <Genealogy>  (18) 
CCCc1ccc(/C=C2\SC(=S)[NH+]([C@@H](Cc3c[nH]c4ccccc34)C(=O)O)C2=O)cc1 (protonated)
CCCc1ccc(/C=C2\SC(=S)[N@H+]([C@@H](Cc3c[nH]c4ccccc34)C(=O)O)C2=O)cc1 (chirality)
CCCc1ccc(/C=C2\SC(=S)[N@H+]([C@@H](Cc3c[nH]c4ccccc34)C(=O)O)C2=O)cc1 (cis-trans isomerization)
CCCc1ccc(/C=C2\SC(=S)[N@H+]([C@@H](Cc3c[nH]c4ccccc34)C(=O)O)C2=O)cc1 (3D coordinates assigned)
CCCc1ccc(/C=C2\SC(=S)[N@H+]([C@@H](Cc3c[nH]c4ccccc34)C(=O)O)C2=O)cc1 (nonaromatic ring conformer: 108.67884383980234 kcal/mol)

$$$$
untitled_line_18
     RDKit          3D

 43 46  0  0  0  0  0  0  0  0999 V2000
    1.5183    0.9215    2.2473 O   0  0  0  0  0  0  0  0  0  0  0  0
    1.1121   -0.1301    1.6858 C   0  0  0  0  0  0  0  0  0  0  0  0
    1.4073   -1.3637    2.2620 O   0  0  0  0  0  0  0  0  0  0  0  0
    0.3299   -0.0359    0.3969 C   0  0  1  0  0  0  0  0  0  0  0  0
    1.1471   -0.6228   -0.7756 C   0  0  0  0  0  0  0  0  0  0  0  0
    2.3842    0.1868   -1.0445 C   0  0  0  0  0  0  0  0  0  0  0  0
    2.4429    1.3968   -1.7297 C   0  0  0  0  0  0  0  0  0  0  0  0
    3.7042    1.8847   -1.7197 N   0  0  0  0  0  0  0  0  0  0  0  0
    4.4398    0.9990   -1.0256 C   0  0  0  0  0  0  0  0  0  0  0  0
    5.8002    1.0788   -0.7310 C   0  0  0  0  0  0  0  0  0  0  0  0
    6.3701    0.0424    0.0306 C   0  0  0  0  0  0  0  0  0  0  0  0
    5.5762   -1.0370    0.4775 C   0  0  0  0  0  0  0  0  0  0  0  0
    4.2054   -1.0908    0.1664 C   0  0  0  0  0  0  0  0  0  0  0  0
    3.6687   -0.0500   -0.5928 C   0  0  0  0  0  0  0  0  0  0  0  0
   -1.0375   -0.7493    0.5530 C   0  0  0  0  0  0  0  0  0  0  0  0
   -2.0393   -0.2705   -0.4278 N   0  0  0  0  0  4  0  0  0  0  0  0
   -3.1466   -1.1949   -0.5103 C   0  0  0  0  0  0  0  0  0  0  0  0
   -3.0371   -2.3674   -0.9604 O   0  0  0  0  0  0  0  0  0  0  0  0
   -4.4010   -0.6060   -0.0689 C   0  0  0  0  0  0  0  0  0  0  0  0
   -5.6849   -1.1432    0.0186 C   0  0  0  0  0  0  0  0  0  0  0  0
   -6.7192   -0.3065    0.4755 C   0  0  0  0  0  0  0  0  0  0  0  0
   -6.4492    1.0345    0.8255 C   0  0  0  0  0  0  0  0  0  0  0  0
   -5.1434    1.5468    0.7208 C   0  0  0  0  0  0  0  0  0  0  0  0
   -4.1400    0.6899    0.2695 C   0  0  0  0  0  0  0  0  0  0  0  0
   -2.7216    0.9165    0.0405 C   0  0  0  0  0  0  0  0  0  0  0  0
   -2.1562    2.0335    0.1850 O   0  0  0  0  0  0  0  0  0  0  0  0
    1.1106   -2.2328    1.8358 H   0  0  0  0  0  0  0  0  0  0  0  0
    0.1475    1.0397    0.1856 H   0  0  0  0  0  0  0  0  0  0  0  0
    1.4221   -1.6791   -0.5691 H   0  0  0  0  0  0  0  0  0  0  0  0
    0.5379   -0.6267   -1.7029 H   0  0  0  0  0  0  0  0  0  0  0  0
    1.6051    1.8977   -2.1971 H   0  0  0  0  0  0  0  0  0  0  0  0
    4.0327    2.7765   -2.1522 H   0  0  0  0  0  0  0  0  0  0  0  0
    6.3995    1.9122   -1.0741 H   0  0  0  0  0  0  0  0  0  0  0  0
    7.4233    0.0735    0.2773 H   0  0  0  0  0  0  0  0  0  0  0  0
    6.0251   -1.8280    1.0640 H   0  0  0  0  0  0  0  0  0  0  0  0
    3.5942   -1.9155    0.5074 H   0  0  0  0  0  0  0  0  0  0  0  0
   -0.8732   -1.8449    0.4334 H   0  0  0  0  0  0  0  0  0  0  0  0
   -1.4248   -0.6086    1.5905 H   0  0  0  0  0  0  0  0  0  0  0  0
   -1.6454   -0.1106   -1.3828 H   0  0  0  0  0  0  0  0  0  0  0  0
   -5.8809   -2.1712   -0.2570 H   0  0  0  0  0  0  0  0  0  0  0  0
   -7.7271   -0.6920    0.5566 H   0  0  0  0  0  0  0  0  0  0  0  0
   -7.2512    1.6723    1.1737 H   0  0  0  0  0  0  0  0  0  0  0  0
   -4.9257    2.5743    0.9818 H   0  0  0  0  0  0  0  0  0  0  0  0
  1  2  2  0
  2  3  1  0
  2  4  1  0
  4  5  1  0
  5  6  1  0
  6  7  2  0
  7  8  1  0
  8  9  1  0
  9 10  2  0
 10 11  1  0
 11 12  2  0
 12 13  1  0
 13 14  2  0
  4 15  1  0
 15 16  1  0
 16 17  1  0
 17 18  2  0
 17 19  1  0
 19 20  2  0
 20 21  1  0
 21 22  2  0
 22 23  1  0
 23 24  2  0
 24 25  1  0
 25 26  2  0
 14  6  1  0
 25 16  1  0
 14  9  1  0
 24 19  1  0
  3 27  1  0
  4 28  1  6
  5 29  1  0
  5 30  1  0
  7 31  1  0
  8 32  1  0
 10 33  1  0
 11 34  1  0
 12 35  1  0
 13 36  1  0
 15 37  1  0
 15 38  1  0
 16 39  1  0
 20 40  1  0
 21 41  1  0
 22 42  1  0
 23 43  1  0
M  CHG  1  16   1
M  END
>  <UniqueID>  (19) 
18

>  <SMILES>  (19) 
O=C(O)[C@@H](Cc1c[nH]c2ccccc12)C[NH+]1C(=O)c2ccccc2C1=O

>  <Energy>  (19) 
103.39867372043105

>  <Genealogy>  (19) 
O=C(O)[C@@H](Cc1c[nH]c2ccccc12)C[NH+]1C(=O)c2ccccc2C1=O (protonated)
O=C(O)[C@@H](Cc1c[nH]c2ccccc12)C[NH+]1C(=O)c2ccccc2C1=O (3D coordinates assigned)
O=C(O)[C@@H](Cc1c[nH]c2ccccc12)C[NH+]1C(=O)c2ccccc2C1=O (nonaromatic ring conformer: 103.39867372043105 kcal/mol)

$$$$
untitled_line_19
     RDKit          3D

 43 46  0  0  0  0  0  0  0  0999 V2000
   -0.9875   -4.0827    0.5485 O   0  0  0  0  0  0  0  0  0  0  0  0
   -1.2990   -3.2121   -0.3076 C   0  0  0  0  0  0  0  0  0  0  0  0
   -1.6807   -3.6006   -1.5880 O   0  0  0  0  0  0  0  0  0  0  0  0
   -1.2327   -1.7573    0.0428 C   0  0  0  0  0  0  0  0  0  0  0  0
    0.2262   -1.2334    0.1120 C   0  0  2  0  0  0  0  0  0  0  0  0
    0.2544    0.2459    0.5979 C   0  0  0  0  0  0  0  0  0  0  0  0
   -0.1769    0.3769    2.0313 C   0  0  0  0  0  0  0  0  0  0  0  0
    0.5867    0.0679    3.1529 C   0  0  0  0  0  0  0  0  0  0  0  0
   -0.1328    0.2602    4.2817 N   0  0  0  0  0  0  0  0  0  0  0  0
   -1.3458    0.6805    3.8824 C   0  0  0  0  0  0  0  0  0  0  0  0
   -2.4387    0.9933    4.6896 C   0  0  0  0  0  0  0  0  0  0  0  0
   -3.6282    1.3993    4.0576 C   0  0  0  0  0  0  0  0  0  0  0  0
   -3.6989    1.4794    2.6491 C   0  0  0  0  0  0  0  0  0  0  0  0
   -2.5805    1.1565    1.8594 C   0  0  0  0  0  0  0  0  0  0  0  0
   -1.4131    0.7619    2.5147 C   0  0  0  0  0  0  0  0  0  0  0  0
    0.9466   -1.4298   -1.1813 N   0  0  0  0  0  4  0  0  0  0  0  0
    2.3603   -1.1572   -1.0499 C   0  0  0  0  0  0  0  0  0  0  0  0
    3.1257   -1.8136   -0.2933 O   0  0  0  0  0  0  0  0  0  0  0  0
    2.7997   -0.0743   -1.9163 C   0  0  0  0  0  0  0  0  0  0  0  0
    4.0545    0.5085   -2.0886 C   0  0  0  0  0  0  0  0  0  0  0  0
    4.1725    1.5541   -3.0221 C   0  0  0  0  0  0  0  0  0  0  0  0
    3.0458    1.9856   -3.7557 C   0  0  0  0  0  0  0  0  0  0  0  0
    1.7940    1.3747   -3.5600 C   0  0  0  0  0  0  0  0  0  0  0  0
    1.7094    0.3444   -2.6245 C   0  0  0  0  0  0  0  0  0  0  0  0
    0.5829   -0.4774   -2.2087 C   0  0  0  0  0  0  0  0  0  0  0  0
   -0.5613   -0.4210   -2.7333 O   0  0  0  0  0  0  0  0  0  0  0  0
   -1.7188   -4.5799   -1.8438 H   0  0  0  0  0  0  0  0  0  0  0  0
   -1.8269   -1.1704   -0.6874 H   0  0  0  0  0  0  0  0  0  0  0  0
   -1.7244   -1.6329    1.0305 H   0  0  0  0  0  0  0  0  0  0  0  0
    0.7420   -1.8456    0.8888 H   0  0  0  0  0  0  0  0  0  0  0  0
   -0.3913    0.8778   -0.0480 H   0  0  0  0  0  0  0  0  0  0  0  0
    1.2835    0.6554    0.5254 H   0  0  0  0  0  0  0  0  0  0  0  0
    1.6093   -0.2865    3.1411 H   0  0  0  0  0  0  0  0  0  0  0  0
    0.1891    0.1022    5.2625 H   0  0  0  0  0  0  0  0  0  0  0  0
   -2.3765    0.9237    5.7679 H   0  0  0  0  0  0  0  0  0  0  0  0
   -4.4956    1.6488    4.6546 H   0  0  0  0  0  0  0  0  0  0  0  0
   -4.6205    1.7893    2.1739 H   0  0  0  0  0  0  0  0  0  0  0  0
   -2.6327    1.2101    0.7801 H   0  0  0  0  0  0  0  0  0  0  0  0
    0.8388   -2.4019   -1.5515 H   0  0  0  0  0  0  0  0  0  0  0  0
    4.9115    0.1682   -1.5222 H   0  0  0  0  0  0  0  0  0  0  0  0
    5.1320    2.0290   -3.1797 H   0  0  0  0  0  0  0  0  0  0  0  0
    3.1459    2.7897   -4.4731 H   0  0  0  0  0  0  0  0  0  0  0  0
    0.9243    1.6958   -4.1183 H   0  0  0  0  0  0  0  0  0  0  0  0
  1  2  2  0
  2  3  1  0
  2  4  1  0
  4  5  1  0
  5  6  1  0
  6  7  1  0
  7  8  2  0
  8  9  1  0
  9 10  1  0
 10 11  2  0
 11 12  1  0
 12 13  2  0
 13 14  1  0
 14 15  2  0
  5 16  1  0
 16 17  1  0
 17 18  2  0
 17 19  1  0
 19 20  2  0
 20 21  1  0
 21 22  2  0
 22 23  1  0
 23 24  2  0
 24 25  1  0
 25 26  2  0
 15  7  1  0
 25 16  1  0
 15 10  1  0
 24 19  1  0
  3 27  1  0
  4 28  1  0
  4 29  1  0
  5 30  1  1
  6 31  1  0
  6 32  1  0
  8 33  1  0
  9 34  1  0
 11 35  1  0
 12 36  1  0
 13 37  1  0
 14 38  1  0
 16 39  1  0
 20 40  1  0
 21 41  1  0
 22 42  1  0
 23 43  1  0
M  CHG  1  16   1
M  END
>  <UniqueID>  (20) 
19

>  <SMILES>  (20) 
O=C(O)C[C@H](Cc1c[nH]c2ccccc12)[NH+]1C(=O)c2ccccc2C1=O

>  <Energy>  (20) 
105.26881666591575

>  <Genealogy>  (20) 
O=C(O)C[C@H](Cc1c[nH]c2ccccc12)[NH+]1C(=O)c2ccccc2C1=O (protonated)
O=C(O)C[C@H](Cc1c[nH]c2ccccc12)[NH+]1C(=O)c2ccccc2C1=O (3D coordinates assigned)
O=C(O)C[C@H](Cc1c[nH]c2ccccc12)[NH+]1C(=O)c2ccccc2C1=O (nonaromatic ring conformer: 105.26881666591575 kcal/mol)

$$$$
untitled_line_20
     RDKit          3D

 39 40  0  0  0  0  0  0  0  0999 V2000
    2.9104   -0.1326    0.9352 C   0  0  0  0  0  0  0  0  0  0  0  0
    2.2028    0.5837    2.0895 C   0  0  2  0  0  0  0  0  0  0  0  0
    1.7997   -0.4170    3.1875 C   0  0  0  0  0  0  0  0  0  0  0  0
    1.0756    0.4293    4.6316 S   0  0  0  0  0  0  0  0  0  0  0  0
    1.0131    1.3618    1.5790 C   0  0  0  0  0  0  0  0  0  0  0  0
    1.0522    2.6222    1.5965 O   0  0  0  0  0  0  0  0  0  0  0  0
   -0.1496    0.6841    1.0758 N   0  0  0  0  0  0  0  0  0  0  0  0
   -1.3892    1.3922    0.7310 C   0  0  1  0  0  0  0  0  0  0  0  0
   -1.4280    1.7343   -0.7698 C   0  0  0  0  0  0  0  0  0  0  0  0
   -1.2933    0.5215   -1.6491 C   0  0  0  0  0  0  0  0  0  0  0  0
   -2.3156   -0.3390   -2.0390 C   0  0  0  0  0  0  0  0  0  0  0  0
   -1.8187   -1.3621   -2.7710 N   0  0  0  0  0  0  0  0  0  0  0  0
   -0.4920   -1.1577   -2.8425 C   0  0  0  0  0  0  0  0  0  0  0  0
    0.4529   -1.9584   -3.4829 C   0  0  0  0  0  0  0  0  0  0  0  0
    1.8011   -1.5608   -3.4224 C   0  0  0  0  0  0  0  0  0  0  0  0
    2.1700   -0.3848   -2.7325 C   0  0  0  0  0  0  0  0  0  0  0  0
    1.1945    0.4037   -2.0960 C   0  0  0  0  0  0  0  0  0  0  0  0
   -0.1331   -0.0179   -2.1698 C   0  0  0  0  0  0  0  0  0  0  0  0
   -2.6026    0.5953    1.1457 C   0  0  0  0  0  0  0  0  0  0  0  0
   -2.5606   -0.6632    1.1932 O   0  0  0  0  0  0  0  0  0  0  0  0
   -3.8012    1.2430    1.4312 O   0  0  0  0  0  0  0  0  0  0  0  0
    3.2265    0.6041    0.1663 H   0  0  0  0  0  0  0  0  0  0  0  0
    3.8205   -0.6492    1.3078 H   0  0  0  0  0  0  0  0  0  0  0  0
    2.2445   -0.8863    0.4639 H   0  0  0  0  0  0  0  0  0  0  0  0
    2.9339    1.2980    2.5305 H   0  0  0  0  0  0  0  0  0  0  0  0
    1.0652   -1.1538    2.7994 H   0  0  0  0  0  0  0  0  0  0  0  0
    2.6951   -0.9785    3.5308 H   0  0  0  0  0  0  0  0  0  0  0  0
    2.2847    1.0703    4.9628 H   0  0  0  0  0  0  0  0  0  0  0  0
   -0.0759   -0.3362    0.8631 H   0  0  0  0  0  0  0  0  0  0  0  0
   -1.4299    2.3502    1.2944 H   0  0  0  0  0  0  0  0  0  0  0  0
   -2.3826    2.2518   -1.0085 H   0  0  0  0  0  0  0  0  0  0  0  0
   -0.6102    2.4497   -1.0007 H   0  0  0  0  0  0  0  0  0  0  0  0
   -3.3627   -0.2289   -1.7885 H   0  0  0  0  0  0  0  0  0  0  0  0
   -2.3586   -2.1543   -3.1850 H   0  0  0  0  0  0  0  0  0  0  0  0
    0.1605   -2.8586   -4.0080 H   0  0  0  0  0  0  0  0  0  0  0  0
    2.5604   -2.1603   -3.9073 H   0  0  0  0  0  0  0  0  0  0  0  0
    3.2101   -0.0890   -2.6911 H   0  0  0  0  0  0  0  0  0  0  0  0
    1.4714    1.3051   -1.5658 H   0  0  0  0  0  0  0  0  0  0  0  0
   -3.8789    2.2515    1.3770 H   0  0  0  0  0  0  0  0  0  0  0  0
  1  2  1  0
  2  3  1  0
  3  4  1  0
  2  5  1  0
  5  6  2  0
  5  7  1  0
  7  8  1  0
  8  9  1  0
  9 10  1  0
 10 11  2  0
 11 12  1  0
 12 13  1  0
 13 14  2  0
 14 15  1  0
 15 16  2  0
 16 17  1  0
 17 18  2  0
  8 19  1  0
 19 20  2  0
 19 21  1  0
 18 10  1  0
 18 13  1  0
  1 22  1  0
  1 23  1  0
  1 24  1  0
  2 25  1  1
  3 26  1  0
  3 27  1  0
  4 28  1  0
  7 29  1  0
  8 30  1  1
  9 31  1  0
  9 32  1  0
 11 33  1  0
 12 34  1  0
 14 35  1  0
 15 36  1  0
 16 37  1  0
 17 38  1  0
 21 39  1  0
M  END
>  <UniqueID>  (21) 
20

>  <SMILES>  (21) 
C[C@H](CS)C(=O)N[C@@H](Cc1c[nH]c2ccccc12)C(=O)O

>  <Energy>  (21) 
60.38302449492383

>  <Genealogy>  (21) 
C[C@H](CS)C(=O)N[C@@H](Cc1c[nH]c2ccccc12)C(=O)O (chirality)
C[C@H](CS)C(=O)N[C@@H](Cc1c[nH]c2ccccc12)C(=O)O (3D coordinates assigned)
C[C@H](CS)C(=O)N[C@@H](Cc1c[nH]c2ccccc12)C(=O)O (optimized conformer: 60.38302449492383 kcal/mol)

$$$$
untitled_line_21
     RDKit          3D

 36 37  0  0  0  0  0  0  0  0999 V2000
    2.6442    0.4546    0.8830 O   0  0  0  0  0  0  0  0  0  0  0  0
    1.7433    0.5979    0.0123 C   0  0  0  0  0  0  0  0  0  0  0  0
    1.6443    1.8937   -0.7386 C   0  0  0  0  0  0  0  0  0  0  0  0
    0.9833    2.9837    0.1085 C   0  0  0  0  0  0  0  0  0  0  0  0
   -0.7574    2.5888    0.4790 S   0  0  0  0  0  0  0  0  0  0  0  0
    0.7998   -0.4543   -0.2351 N   0  0  0  0  0  0  0  0  0  0  0  0
    0.8308   -1.7221    0.4999 C   0  0  1  0  0  0  0  0  0  0  0  0
   -0.5619   -2.3745    0.5254 C   0  0  0  0  0  0  0  0  0  0  0  0
   -1.5578   -1.5026    1.2358 C   0  0  0  0  0  0  0  0  0  0  0  0
   -1.6607   -1.3238    2.6122 C   0  0  0  0  0  0  0  0  0  0  0  0
   -2.6145   -0.4095    2.9002 N   0  0  0  0  0  0  0  0  0  0  0  0
   -3.1086   -0.0029    1.7181 C   0  0  0  0  0  0  0  0  0  0  0  0
   -4.0988    0.9546    1.5022 C   0  0  0  0  0  0  0  0  0  0  0  0
   -4.4502    1.2491    0.1724 C   0  0  0  0  0  0  0  0  0  0  0  0
   -3.8107    0.5887   -0.8997 C   0  0  0  0  0  0  0  0  0  0  0  0
   -2.8140   -0.3726   -0.6525 C   0  0  0  0  0  0  0  0  0  0  0  0
   -2.4867   -0.6448    0.6770 C   0  0  0  0  0  0  0  0  0  0  0  0
    1.8183   -2.6498   -0.1443 C   0  0  0  0  0  0  0  0  0  0  0  0
    2.6660   -3.2585    0.5619 O   0  0  0  0  0  0  0  0  0  0  0  0
    1.7815   -2.8607   -1.5198 O   0  0  0  0  0  0  0  0  0  0  0  0
    1.0752    1.7518   -1.6823 H   0  0  0  0  0  0  0  0  0  0  0  0
    2.6677    2.2260   -1.0169 H   0  0  0  0  0  0  0  0  0  0  0  0
    1.5369    3.1134    1.0630 H   0  0  0  0  0  0  0  0  0  0  0  0
    1.0175    3.9469   -0.4434 H   0  0  0  0  0  0  0  0  0  0  0  0
   -1.1464    2.6399   -0.8732 H   0  0  0  0  0  0  0  0  0  0  0  0
    0.1271   -0.3426   -1.0270 H   0  0  0  0  0  0  0  0  0  0  0  0
    1.1413   -1.5331    1.5528 H   0  0  0  0  0  0  0  0  0  0  0  0
   -0.5040   -3.3476    1.0605 H   0  0  0  0  0  0  0  0  0  0  0  0
   -0.9091   -2.5848   -0.5092 H   0  0  0  0  0  0  0  0  0  0  0  0
   -1.0588   -1.8242    3.3596 H   0  0  0  0  0  0  0  0  0  0  0  0
   -2.8954   -0.0772    3.8495 H   0  0  0  0  0  0  0  0  0  0  0  0
   -4.5788    1.4601    2.3301 H   0  0  0  0  0  0  0  0  0  0  0  0
   -5.2135    1.9890   -0.0303 H   0  0  0  0  0  0  0  0  0  0  0  0
   -4.0873    0.8255   -1.9187 H   0  0  0  0  0  0  0  0  0  0  0  0
   -2.3205   -0.8775   -1.4719 H   0  0  0  0  0  0  0  0  0  0  0  0
    2.4362   -3.4916   -1.9663 H   0  0  0  0  0  0  0  0  0  0  0  0
  1  2  2  0
  2  3  1  0
  3  4  1  0
  4  5  1  0
  2  6  1  0
  6  7  1  0
  7  8  1  0
  8  9  1  0
  9 10  2  0
 10 11  1  0
 11 12  1  0
 12 13  2  0
 13 14  1  0
 14 15  2  0
 15 16  1  0
 16 17  2  0
  7 18  1  0
 18 19  2  0
 18 20  1  0
 17  9  1  0
 17 12  1  0
  3 21  1  0
  3 22  1  0
  4 23  1  0
  4 24  1  0
  5 25  1  0
  6 26  1  0
  7 27  1  1
  8 28  1  0
  8 29  1  0
 10 30  1  0
 11 31  1  0
 13 32  1  0
 14 33  1  0
 15 34  1  0
 16 35  1  0
 20 36  1  0
M  END
>  <UniqueID>  (22) 
21

>  <SMILES>  (22) 
O=C(CCS)N[C@@H](Cc1c[nH]c2ccccc12)C(=O)O

>  <Energy>  (22) 
56.404784090834674

>  <Genealogy>  (22) 
O=C(CCS)N[C@@H](Cc1c[nH]c2ccccc12)C(=O)O (3D coordinates assigned)
O=C(CCS)N[C@@H](Cc1c[nH]c2ccccc12)C(=O)O (optimized conformer: 56.404784090834674 kcal/mol)

$$$$
untitled_line_22
     RDKit          3D

 54 58  0  0  0  0  0  0  0  0999 V2000
    4.7245   -1.6779    3.7645 H   0  0  0  0  0  0  0  0  0  0  0  0
    4.1754   -0.9598    3.3084 O   0  0  0  0  0  0  0  0  0  0  0  0
    3.1389   -1.2969    2.4436 C   0  0  0  0  0  0  0  0  0  0  0  0
    2.8677   -2.5111    2.2387 O   0  0  0  0  0  0  0  0  0  0  0  0
    2.3251   -0.2003    1.7947 C   0  0  1  0  0  0  0  0  0  0  0  0
    2.9997    0.6859    1.7488 H   0  0  0  0  0  0  0  0  0  0  0  0
    1.9450   -0.5571    0.3289 C   0  0  0  0  0  0  0  0  0  0  0  0
    1.2673    0.2138   -0.0921 H   0  0  0  0  0  0  0  0  0  0  0  0
    1.4017   -1.5258    0.2864 H   0  0  0  0  0  0  0  0  0  0  0  0
    3.1594   -0.6279   -0.5508 C   0  0  0  0  0  0  0  0  0  0  0  0
    3.8601   -1.7738   -0.9156 C   0  0  0  0  0  0  0  0  0  0  0  0
    3.5999   -2.7873   -0.6402 H   0  0  0  0  0  0  0  0  0  0  0  0
    4.9381   -1.4483   -1.6654 N   0  0  0  0  0  0  0  0  0  0  0  0
    5.6395   -2.1072   -2.0704 H   0  0  0  0  0  0  0  0  0  0  0  0
    4.9286   -0.1075   -1.7674 C   0  0  0  0  0  0  0  0  0  0  0  0
    5.8537    0.6964   -2.4321 C   0  0  0  0  0  0  0  0  0  0  0  0
    6.6972    0.2647   -2.9556 H   0  0  0  0  0  0  0  0  0  0  0  0
    5.6589    2.0897   -2.3968 C   0  0  0  0  0  0  0  0  0  0  0  0
    6.3583    2.7429   -2.9025 H   0  0  0  0  0  0  0  0  0  0  0  0
    4.5590    2.6416   -1.7028 C   0  0  0  0  0  0  0  0  0  0  0  0
    4.4206    3.7149   -1.6808 H   0  0  0  0  0  0  0  0  0  0  0  0
    3.6424    1.8059   -1.0393 C   0  0  0  0  0  0  0  0  0  0  0  0
    2.8001    2.2216   -0.5016 H   0  0  0  0  0  0  0  0  0  0  0  0
    3.8597    0.4290   -1.0965 C   0  0  0  0  0  0  0  0  0  0  0  0
    1.1520    0.1586    2.6420 N   0  0  2  0  0  4  0  0  0  0  0  0
    1.4403    0.2370    3.6479 H   0  0  0  0  0  0  0  0  0  0  0  0
    0.0875   -0.8036    2.5677 C   0  0  0  0  0  0  0  0  0  0  0  0
    0.1971   -1.9517    3.0789 O   0  0  0  0  0  0  0  0  0  0  0  0
   -1.1343   -0.3590    1.9071 C   0  0  0  0  0  0  0  0  0  0  0  0
   -2.2071   -1.1406    1.7243 C   0  0  0  0  0  0  0  0  0  0  0  0
   -2.2199   -2.1413    2.1383 H   0  0  0  0  0  0  0  0  0  0  0  0
   -3.4179   -0.6758    1.0167 C   0  0  0  0  0  0  0  0  0  0  0  0
   -4.5874   -0.5203    1.7653 C   0  0  0  0  0  0  0  0  0  0  0  0
   -4.5893   -0.7413    2.8262 H   0  0  0  0  0  0  0  0  0  0  0  0
   -5.7574   -0.0574    1.1707 C   0  0  0  0  0  0  0  0  0  0  0  0
   -6.6393    0.0633    1.7875 H   0  0  0  0  0  0  0  0  0  0  0  0
   -5.7959    0.2547   -0.1954 C   0  0  0  0  0  0  0  0  0  0  0  0
   -7.0887    0.7623   -0.7843 C   0  0  0  0  0  0  0  0  0  0  0  0
   -6.9354    1.7757   -1.2116 H   0  0  0  0  0  0  0  0  0  0  0  0
   -7.4386    0.0705   -1.5792 H   0  0  0  0  0  0  0  0  0  0  0  0
   -7.8914    0.8342   -0.0195 H   0  0  0  0  0  0  0  0  0  0  0  0
   -4.6290    0.0782   -0.9837 C   0  0  0  0  0  0  0  0  0  0  0  0
   -4.6252    0.3630   -2.3670 C   0  0  0  0  0  0  0  0  0  0  0  0
   -5.5059    0.7372   -2.8711 H   0  0  0  0  0  0  0  0  0  0  0  0
   -3.4762    0.1649   -3.1329 C   0  0  0  0  0  0  0  0  0  0  0  0
   -3.4885    0.3858   -4.1922 H   0  0  0  0  0  0  0  0  0  0  0  0
   -2.3163   -0.3275   -2.5420 C   0  0  0  0  0  0  0  0  0  0  0  0
   -1.4314   -0.4899   -3.1436 H   0  0  0  0  0  0  0  0  0  0  0  0
   -2.2915   -0.6167   -1.1785 C   0  0  0  0  0  0  0  0  0  0  0  0
   -1.3731   -1.0101   -0.7631 H   0  0  0  0  0  0  0  0  0  0  0  0
   -3.4334   -0.4037   -0.3750 C   0  0  0  0  0  0  0  0  0  0  0  0
   -1.0340    1.3413    1.3775 S   0  0  0  0  0  0  0  0  0  0  0  0
    0.5583    1.4095    2.2091 C   0  0  0  0  0  0  0  0  0  0  0  0
    1.0510    2.6772    2.6843 S   0  0  0  0  0  0  0  0  0  0  0  0
  1  2  1  0
  2  3  1  0
  3  4  2  0
  3  5  1  0
  5  6  1  6
  5  7  1  0
  7  8  1  0
  7  9  1  0
  7 10  1  0
 10 11  2  0
 11 12  1  0
 11 13  1  0
 13 14  1  0
 13 15  1  0
 15 16  2  0
 16 17  1  0
 16 18  1  0
 18 19  1  0
 18 20  2  0
 20 21  1  0
 20 22  1  0
 22 23  1  0
 22 24  2  0
  5 25  1  0
 25 26  1  1
 25 27  1  0
 27 28  2  0
 27 29  1  0
 29 30  2  0
 30 31  1  0
 30 32  1  0
 32 33  2  0
 33 34  1  0
 33 35  1  0
 35 36  1  0
 35 37  2  0
 37 38  1  0
 38 39  1  0
 38 40  1  0
 38 41  1  0
 37 42  1  0
 42 43  2  0
 43 44  1  0
 43 45  1  0
 45 46  1  0
 45 47  2  0
 47 48  1  0
 47 49  1  0
 49 50  1  0
 49 51  2  0
 29 52  1  0
 52 53  1  0
 53 54  2  0
 24 10  1  0
 53 25  1  0
 24 15  1  0
 51 32  1  0
 51 42  1  0
M  CHG  1  25   1
M  END
>  <UniqueID>  (23) 
22

>  <SMILES>  (23) 
Cc1ccc(/C=C2\SC(=S)[N@H+]([C@H](Cc3c[nH]c4ccccc34)C(=O)O)C2=O)c2ccccc12

>  <Energy>  (23) 
124.03787443129664

>  <Genealogy>  (23) 
Cc1ccc(/C=C2\SC(=S)[NH+]([C@H](Cc3c[nH]c4ccccc34)C(=O)O)C2=O)c2ccccc12 (protonated)
Cc1ccc(/C=C2\SC(=S)[N@H+]([C@H](Cc3c[nH]c4ccccc34)C(=O)O)C2=O)c2ccccc12 (chirality)
Cc1ccc(/C=C2\SC(=S)[N@H+]([C@H](Cc3c[nH]c4ccccc34)C(=O)O)C2=O)c2ccccc12 (cis-trans isomerization)
Cc1ccc(/C=C2\SC(=S)[N@H+]([C@H](Cc3c[nH]c4ccccc34)C(=O)O)C2=O)c2ccccc12 (3D coordinates assigned)
Cc1ccc(/C=C2\SC(=S)[N@H+]([C@H](Cc3c[nH]c4ccccc34)C(=O)O)C2=O)c2ccccc12 (nonaromatic ring conformer: 124.03787443129664 kcal/mol)

$$$$
untitled_line_23
     RDKit          3D

 42 44  0  0  0  0  0  0  0  0999 V2000
    2.2150   -0.5414    0.0455 C   0  0  0  0  0  0  0  0  0  0  0  0
    1.1126   -1.5504   -0.0825 C   0  0  0  0  0  0  0  0  0  0  0  0
    1.0974   -2.7586    0.5839 C   0  0  0  0  0  0  0  0  0  0  0  0
   -0.0447   -3.4105    0.1842 C   0  0  0  0  0  0  0  0  0  0  0  0
   -0.6934   -2.5737   -0.7042 C   0  0  0  0  0  0  0  0  0  0  0  0
   -1.9348   -2.9836   -1.4408 C   0  0  0  0  0  0  0  0  0  0  0  0
    0.0209   -1.4271   -0.8818 N   0  0  0  0  0  0  0  0  0  0  0  0
   -0.2954   -0.2438   -1.7189 C   0  0  1  0  0  0  0  0  0  0  0  0
   -0.4828   -0.6053   -3.2045 C   0  0  0  0  0  0  0  0  0  0  0  0
    0.7010   -1.3547   -3.7346 C   0  0  0  0  0  0  0  0  0  0  0  0
    0.6335   -2.5997   -3.9159 O   0  0  0  0  0  0  0  0  0  0  0  0
    1.8885   -0.6778   -3.9938 O   0  0  0  0  0  0  0  0  0  0  0  0
   -1.5015    0.5469   -1.1710 C   0  0  0  0  0  0  0  0  0  0  0  0
   -1.3203    0.8953    0.2774 C   0  0  0  0  0  0  0  0  0  0  0  0
   -1.7688    0.1568    1.3685 C   0  0  0  0  0  0  0  0  0  0  0  0
   -1.3346    0.7106    2.5235 N   0  0  0  0  0  0  0  0  0  0  0  0
   -0.6070    1.7844    2.1700 C   0  0  0  0  0  0  0  0  0  0  0  0
    0.0767    2.6571    3.0153 C   0  0  0  0  0  0  0  0  0  0  0  0
    0.8118    3.7022    2.4262 C   0  0  0  0  0  0  0  0  0  0  0  0
    0.8510    3.8465    1.0214 C   0  0  0  0  0  0  0  0  0  0  0  0
    0.1537    2.9488    0.1928 C   0  0  0  0  0  0  0  0  0  0  0  0
   -0.5725    1.9280    0.8066 C   0  0  0  0  0  0  0  0  0  0  0  0
    2.6951   -0.3840   -0.9427 H   0  0  0  0  0  0  0  0  0  0  0  0
    2.9884   -0.8947    0.7598 H   0  0  0  0  0  0  0  0  0  0  0  0
    1.8081    0.4189    0.4202 H   0  0  0  0  0  0  0  0  0  0  0  0
    1.8438   -3.1324    1.2724 H   0  0  0  0  0  0  0  0  0  0  0  0
   -0.3594   -4.3985    0.4937 H   0  0  0  0  0  0  0  0  0  0  0  0
   -2.6626   -2.1576   -1.5106 H   0  0  0  0  0  0  0  0  0  0  0  0
   -2.4367   -3.8174   -0.9057 H   0  0  0  0  0  0  0  0  0  0  0  0
   -1.6665   -3.3410   -2.4557 H   0  0  0  0  0  0  0  0  0  0  0  0
    0.5625    0.4627   -1.6948 H   0  0  0  0  0  0  0  0  0  0  0  0
   -0.5899    0.3309   -3.7941 H   0  0  0  0  0  0  0  0  0  0  0  0
   -1.4117   -1.1867   -3.3673 H   0  0  0  0  0  0  0  0  0  0  0  0
    2.7038   -1.1718   -4.3362 H   0  0  0  0  0  0  0  0  0  0  0  0
   -1.6158    1.4880   -1.7513 H   0  0  0  0  0  0  0  0  0  0  0  0
   -2.4473   -0.0120   -1.2959 H   0  0  0  0  0  0  0  0  0  0  0  0
   -2.3592   -0.7488    1.3173 H   0  0  0  0  0  0  0  0  0  0  0  0
   -1.5110    0.3581    3.4904 H   0  0  0  0  0  0  0  0  0  0  0  0
    0.0489    2.5324    4.0901 H   0  0  0  0  0  0  0  0  0  0  0  0
    1.3549    4.3969    3.0535 H   0  0  0  0  0  0  0  0  0  0  0  0
    1.4244    4.6508    0.5793 H   0  0  0  0  0  0  0  0  0  0  0  0
    0.1873    3.0476   -0.8843 H   0  0  0  0  0  0  0  0  0  0  0  0
  1  2  1  0
  2  3  2  0
  3  4  1  0
  4  5  2  0
  5  6  1  0
  5  7  1  0
  7  8  1  0
  8  9  1  0
  9 10  1  0
 10 11  2  0
 10 12  1  0
  8 13  1  0
 13 14  1  0
 14 15  2  0
 15 16  1  0
 16 17  1  0
 17 18  2  0
 18 19  1  0
 19 20  2  0
 20 21  1  0
 21 22  2  0
  7  2  1  0
 22 14  1  0
 22 17  1  0
  1 23  1  0
  1 24  1  0
  1 25  1  0
  3 26  1  0
  4 27  1  0
  6 28  1  0
  6 29  1  0
  6 30  1  0
  8 31  1  6
  9 32  1  0
  9 33  1  0
 12 34  1  0
 13 35  1  0
 13 36  1  0
 15 37  1  0
 16 38  1  0
 18 39  1  0
 19 40  1  0
 20 41  1  0
 21 42  1  0
M  END
>  <UniqueID>  (24) 
23

>  <SMILES>  (24) 
Cc1ccc(C)n1[C@@H](CC(=O)O)Cc1c[nH]c2ccccc12

>  <Energy>  (24) 
95.91405325770079

>  <Genealogy>  (24) 
Cc1ccc(C)n1[C@@H](CC(=O)O)Cc1c[nH]c2ccccc12 (3D coordinates assigned)
Cc1ccc(C)n1[C@@H](CC(=O)O)Cc1c[nH]c2ccccc12 (optimized conformer: 95.91405325770079 kcal/mol)

$$$$
untitled_line_24
     RDKit          3D

 45 48  0  0  0  0  0  0  0  0999 V2000
    1.1589   -1.0252    0.4176 O   0  0  0  0  0  0  0  0  0  0  0  0
    1.1166   -0.0530   -0.3843 C   0  0  0  0  0  0  0  0  0  0  0  0
   -0.1472    0.3782   -0.9152 N   0  0  0  0  0  0  0  0  0  0  0  0
   -1.4041   -0.2953   -0.5736 C   0  0  1  0  0  0  0  0  0  0  0  0
   -2.6064    0.5785   -0.9772 C   0  0  0  0  0  0  0  0  0  0  0  0
   -3.9046   -0.0115   -0.5052 C   0  0  0  0  0  0  0  0  0  0  0  0
   -4.7830   -0.7899   -1.2531 C   0  0  0  0  0  0  0  0  0  0  0  0
   -5.8144   -1.2082   -0.4843 N   0  0  0  0  0  0  0  0  0  0  0  0
   -5.5886   -0.7097    0.7438 C   0  0  0  0  0  0  0  0  0  0  0  0
   -6.3705   -0.8863    1.8846 C   0  0  0  0  0  0  0  0  0  0  0  0
   -5.9341   -0.2860    3.0801 C   0  0  0  0  0  0  0  0  0  0  0  0
   -4.7383    0.4657    3.1088 C   0  0  0  0  0  0  0  0  0  0  0  0
   -3.9685    0.6255    1.9422 C   0  0  0  0  0  0  0  0  0  0  0  0
   -4.4294    0.0226    0.7717 C   0  0  0  0  0  0  0  0  0  0  0  0
   -1.4629   -1.6363   -1.2584 C   0  0  0  0  0  0  0  0  0  0  0  0
   -1.7400   -2.6679   -0.5915 O   0  0  0  0  0  0  0  0  0  0  0  0
   -1.2383   -1.7499   -2.6280 O   0  0  0  0  0  0  0  0  0  0  0  0
    2.3677    0.6186   -0.7975 C   0  0  0  0  0  0  0  0  0  0  0  0
    2.3404    1.4052   -1.7813 O   0  0  0  0  0  0  0  0  0  0  0  0
    3.6502    0.3935   -0.0924 C   0  0  0  0  0  0  0  0  0  0  0  0
    3.8225   -0.0159    1.2308 C   0  0  0  0  0  0  0  0  0  0  0  0
    5.1359   -0.0696    1.5457 N   0  0  0  0  0  0  0  0  0  0  0  0
    5.8000    0.3054    0.4404 C   0  0  0  0  0  0  0  0  0  0  0  0
    7.1818    0.4056    0.2835 C   0  0  0  0  0  0  0  0  0  0  0  0
    7.6740    0.8176   -0.9673 C   0  0  0  0  0  0  0  0  0  0  0  0
    6.7845    1.1153   -2.0222 C   0  0  0  0  0  0  0  0  0  0  0  0
    5.3945    1.0064   -1.8359 C   0  0  0  0  0  0  0  0  0  0  0  0
    4.9314    0.6005   -0.5810 C   0  0  0  0  0  0  0  0  0  0  0  0
   -0.1688    1.1991   -1.5625 H   0  0  0  0  0  0  0  0  0  0  0  0
   -1.4382   -0.4392    0.5302 H   0  0  0  0  0  0  0  0  0  0  0  0
   -2.4929    1.5891   -0.5287 H   0  0  0  0  0  0  0  0  0  0  0  0
   -2.6355    0.7079   -2.0813 H   0  0  0  0  0  0  0  0  0  0  0  0
   -4.6656   -1.0464   -2.2980 H   0  0  0  0  0  0  0  0  0  0  0  0
   -6.6141   -1.8089   -0.7843 H   0  0  0  0  0  0  0  0  0  0  0  0
   -7.2823   -1.4685    1.8540 H   0  0  0  0  0  0  0  0  0  0  0  0
   -6.5173   -0.4034    3.9841 H   0  0  0  0  0  0  0  0  0  0  0  0
   -4.4112    0.9206    4.0347 H   0  0  0  0  0  0  0  0  0  0  0  0
   -3.0497    1.1973    1.9575 H   0  0  0  0  0  0  0  0  0  0  0  0
   -1.0220   -0.9390   -3.1950 H   0  0  0  0  0  0  0  0  0  0  0  0
    3.0341   -0.2344    1.9382 H   0  0  0  0  0  0  0  0  0  0  0  0
    5.5465   -0.3378    2.4677 H   0  0  0  0  0  0  0  0  0  0  0  0
    7.8559    0.1725    1.0976 H   0  0  0  0  0  0  0  0  0  0  0  0
    8.7414    0.9047   -1.1227 H   0  0  0  0  0  0  0  0  0  0  0  0
    7.1749    1.4272   -2.9822 H   0  0  0  0  0  0  0  0  0  0  0  0
    4.7170    1.2254   -2.6494 H   0  0  0  0  0  0  0  0  0  0  0  0
  1  2  2  0
  2  3  1  0
  3  4  1  0
  4  5  1  0
  5  6  1  0
  6  7  2  0
  7  8  1  0
  8  9  1  0
  9 10  2  0
 10 11  1  0
 11 12  2  0
 12 13  1  0
 13 14  2  0
  4 15  1  0
 15 16  2  0
 15 17  1  0
  2 18  1  0
 18 19  2  0
 18 20  1  0
 20 21  2  0
 21 22  1  0
 22 23  1  0
 23 24  2  0
 24 25  1  0
 25 26  2  0
 26 27  1  0
 27 28  2  0
 14  6  1  0
 28 20  1  0
 14  9  1  0
 28 23  1  0
  3 29  1  0
  4 30  1  1
  5 31  1  0
  5 32  1  0
  7 33  1  0
  8 34  1  0
 10 35  1  0
 11 36  1  0
 12 37  1  0
 13 38  1  0
 17 39  1  0
 21 40  1  0
 22 41  1  0
 24 42  1  0
 25 43  1  0
 26 44  1  0
 27 45  1  0
M  END
>  <UniqueID>  (25) 
24

>  <SMILES>  (25) 
O=C(N[C@@H](Cc1c[nH]c2ccccc12)C(=O)O)C(=O)c1c[nH]c2ccccc12

>  <Energy>  (25) 
112.556307255113

>  <Genealogy>  (25) 
O=C(N[C@@H](Cc1c[nH]c2ccccc12)C(=O)O)C(=O)c1c[nH]c2ccccc12 (chirality)
O=C(N[C@@H](Cc1c[nH]c2ccccc12)C(=O)O)C(=O)c1c[nH]c2ccccc12 (3D coordinates assigned)
O=C(N[C@@H](Cc1c[nH]c2ccccc12)C(=O)O)C(=O)c1c[nH]c2ccccc12 (optimized conformer: 112.556307255113 kcal/mol)

$$$$
untitled_line_25
     RDKit          3D

 42 45  0  0  0  0  0  0  0  0999 V2000
   -0.3150    3.1962    1.2167 O   0  0  0  0  0  0  0  0  0  0  0  0
   -0.3277    1.9463    1.0635 C   0  0  0  0  0  0  0  0  0  0  0  0
   -0.9674    1.1592    2.0199 O   0  0  0  0  0  0  0  0  0  0  0  0
    0.3180    1.3423   -0.1712 C   0  0  2  0  0  0  0  0  0  0  0  0
   -0.7490    1.1127   -1.2755 C   0  0  0  0  0  0  0  0  0  0  0  0
   -1.8314    0.1403   -0.8897 C   0  0  0  0  0  0  0  0  0  0  0  0
   -1.8064   -1.2421   -1.0553 C   0  0  0  0  0  0  0  0  0  0  0  0
   -2.9437   -1.7967   -0.5784 N   0  0  0  0  0  0  0  0  0  0  0  0
   -3.6886   -0.7783   -0.1159 C   0  0  0  0  0  0  0  0  0  0  0  0
   -4.9500   -0.8546    0.4729 C   0  0  0  0  0  0  0  0  0  0  0  0
   -5.5554    0.3452    0.8887 C   0  0  0  0  0  0  0  0  0  0  0  0
   -4.8947    1.5803    0.7074 C   0  0  0  0  0  0  0  0  0  0  0  0
   -3.6225    1.6272    0.1091 C   0  0  0  0  0  0  0  0  0  0  0  0
   -3.0456    0.4206   -0.2904 C   0  0  0  0  0  0  0  0  0  0  0  0
    1.1024    0.1127    0.1414 N   0  0  0  0  0  4  0  0  0  0  0  0
    2.0870    0.3215    1.2401 C   0  0  0  0  0  0  0  0  0  0  0  0
    3.3084   -0.3934    0.8170 C   0  0  0  0  0  0  0  0  0  0  0  0
    4.4727   -0.6279    1.5515 C   0  0  0  0  0  0  0  0  0  0  0  0
    5.5323   -1.3059    0.9264 C   0  0  0  0  0  0  0  0  0  0  0  0
    5.4119   -1.7235   -0.4133 C   0  0  0  0  0  0  0  0  0  0  0  0
    4.2319   -1.4635   -1.1296 C   0  0  0  0  0  0  0  0  0  0  0  0
    3.1921   -0.7970   -0.4780 C   0  0  0  0  0  0  0  0  0  0  0  0
    1.8835   -0.3844   -1.0258 C   0  0  0  0  0  0  0  0  0  0  0  0
   -1.0411    0.1542    1.9312 H   0  0  0  0  0  0  0  0  0  0  0  0
    1.0201    2.1111   -0.5710 H   0  0  0  0  0  0  0  0  0  0  0  0
   -0.2652    0.7551   -2.2082 H   0  0  0  0  0  0  0  0  0  0  0  0
   -1.2157    2.0877   -1.5341 H   0  0  0  0  0  0  0  0  0  0  0  0
   -1.0016   -1.8109   -1.5007 H   0  0  0  0  0  0  0  0  0  0  0  0
   -3.1895   -2.8116   -0.5733 H   0  0  0  0  0  0  0  0  0  0  0  0
   -5.4487   -1.8058    0.6069 H   0  0  0  0  0  0  0  0  0  0  0  0
   -6.5340    0.3214    1.3501 H   0  0  0  0  0  0  0  0  0  0  0  0
   -5.3701    2.4970    1.0310 H   0  0  0  0  0  0  0  0  0  0  0  0
   -3.1124    2.5709   -0.0308 H   0  0  0  0  0  0  0  0  0  0  0  0
    0.4537   -0.6540    0.4373 H   0  0  0  0  0  0  0  0  0  0  0  0
    1.7093   -0.0967    2.1996 H   0  0  0  0  0  0  0  0  0  0  0  0
    2.3425    1.3963    1.3778 H   0  0  0  0  0  0  0  0  0  0  0  0
    4.5584   -0.2937    2.5773 H   0  0  0  0  0  0  0  0  0  0  0  0
    6.4448   -1.5030    1.4738 H   0  0  0  0  0  0  0  0  0  0  0  0
    6.2321   -2.2409   -0.8937 H   0  0  0  0  0  0  0  0  0  0  0  0
    4.1327   -1.7709   -2.1625 H   0  0  0  0  0  0  0  0  0  0  0  0
    2.0615    0.4087   -1.7859 H   0  0  0  0  0  0  0  0  0  0  0  0
    1.3803   -1.2519   -1.5058 H   0  0  0  0  0  0  0  0  0  0  0  0
  1  2  2  0
  2  3  1  0
  2  4  1  0
  4  5  1  0
  5  6  1  0
  6  7  2  0
  7  8  1  0
  8  9  1  0
  9 10  2  0
 10 11  1  0
 11 12  2  0
 12 13  1  0
 13 14  2  0
  4 15  1  0
 15 16  1  0
 16 17  1  0
 17 18  2  0
 18 19  1  0
 19 20  2  0
 20 21  1  0
 21 22  2  0
 22 23  1  0
 14  6  1  0
 23 15  1  0
 14  9  1  0
 22 17  1  0
  3 24  1  0
  4 25  1  6
  5 26  1  0
  5 27  1  0
  7 28  1  0
  8 29  1  0
 10 30  1  0
 11 31  1  0
 12 32  1  0
 13 33  1  0
 15 34  1  0
 16 35  1  0
 16 36  1  0
 18 37  1  0
 19 38  1  0
 20 39  1  0
 21 40  1  0
 23 41  1  0
 23 42  1  0
M  CHG  1  15   1
M  END
>  <UniqueID>  (26) 
25

>  <SMILES>  (26) 
O=C(O)[C@H](Cc1c[nH]c2ccccc12)[NH+]1Cc2ccccc2C1

>  <Energy>  (26) 
92.70486268114276

>  <Genealogy>  (26) 
O=C(O)[C@H](Cc1c[nH]c2ccccc12)[NH+]1Cc2ccccc2C1 (protonated)
O=C(O)[C@H](Cc1c[nH]c2ccccc12)[NH+]1Cc2ccccc2C1 (3D coordinates assigned)
O=C(O)[C@H](Cc1c[nH]c2ccccc12)[NH+]1Cc2ccccc2C1 (nonaromatic ring conformer: 92.70486268114276 kcal/mol)

$$$$
untitled_line_26
     RDKit          3D

 30 31  0  0  0  0  0  0  0  0999 V2000
   -3.0210   -2.7011   -1.6169 O   0  0  0  0  0  0  0  0  0  0  0  0
   -1.7648   -2.7000   -1.7302 C   0  0  0  0  0  0  0  0  0  0  0  0
   -1.1732   -3.2530   -2.8619 O   0  0  0  0  0  0  0  0  0  0  0  0
   -0.8988   -2.1351   -0.6375 C   0  0  1  0  0  0  0  0  0  0  0  0
   -1.3792   -0.7315   -0.2224 C   0  0  0  0  0  0  0  0  0  0  0  0
   -0.4254   -0.0881    0.7438 C   0  0  0  0  0  0  0  0  0  0  0  0
   -0.5377   -0.0688    2.1310 C   0  0  0  0  0  0  0  0  0  0  0  0
    0.5479    0.5188    2.6842 N   0  0  0  0  0  0  0  0  0  0  0  0
    1.3489    0.8590    1.6594 C   0  0  0  0  0  0  0  0  0  0  0  0
    2.5989    1.4723    1.7314 C   0  0  0  0  0  0  0  0  0  0  0  0
    3.2816    1.7169    0.5256 C   0  0  0  0  0  0  0  0  0  0  0  0
    2.7081    1.3435   -0.7103 C   0  0  0  0  0  0  0  0  0  0  0  0
    1.4459    0.7236   -0.7522 C   0  0  0  0  0  0  0  0  0  0  0  0
    0.7911    0.5000    0.4591 C   0  0  0  0  0  0  0  0  0  0  0  0
   -0.8672   -3.0723    0.5445 C   0  0  0  0  0  0  0  0  0  0  0  0
   -1.9437   -3.5193    1.0267 O   0  0  0  0  0  0  0  0  0  0  0  0
    0.3783   -3.4077    1.1633 N   0  0  0  0  0  0  0  0  0  0  0  0
    0.4118   -4.2170    2.2487 O   0  0  0  0  0  0  0  0  0  0  0  0
   -1.7389   -3.6477   -3.6037 H   0  0  0  0  0  0  0  0  0  0  0  0
    0.1305   -2.0406   -1.0494 H   0  0  0  0  0  0  0  0  0  0  0  0
   -2.3892   -0.7904    0.2399 H   0  0  0  0  0  0  0  0  0  0  0  0
   -1.4615   -0.0841   -1.1226 H   0  0  0  0  0  0  0  0  0  0  0  0
   -1.3597   -0.4789    2.7031 H   0  0  0  0  0  0  0  0  0  0  0  0
    0.7311    0.6603    3.7024 H   0  0  0  0  0  0  0  0  0  0  0  0
    3.0332    1.7485    2.6835 H   0  0  0  0  0  0  0  0  0  0  0  0
    4.2541    2.1913    0.5457 H   0  0  0  0  0  0  0  0  0  0  0  0
    3.2439    1.5336   -1.6311 H   0  0  0  0  0  0  0  0  0  0  0  0
    1.0023    0.4309   -1.6949 H   0  0  0  0  0  0  0  0  0  0  0  0
    1.2751   -3.0312    0.7820 H   0  0  0  0  0  0  0  0  0  0  0  0
    0.3566   -3.6026    3.0248 H   0  0  0  0  0  0  0  0  0  0  0  0
  1  2  2  0
  2  3  1  0
  2  4  1  0
  4  5  1  0
  5  6  1  0
  6  7  2  0
  7  8  1  0
  8  9  1  0
  9 10  2  0
 10 11  1  0
 11 12  2  0
 12 13  1  0
 13 14  2  0
  4 15  1  0
 15 16  2  0
 15 17  1  0
 17 18  1  0
 14  6  1  0
 14  9  1  0
  3 19  1  0
  4 20  1  6
  5 21  1  0
  5 22  1  0
  7 23  1  0
  8 24  1  0
 10 25  1  0
 11 26  1  0
 12 27  1  0
 13 28  1  0
 17 29  1  0
 18 30  1  0
M  END
>  <UniqueID>  (27) 
26

>  <SMILES>  (27) 
O=C(O)[C@@H](Cc1c[nH]c2ccccc12)C(=O)NO

>  <Energy>  (27) 
56.76190645995466

>  <Genealogy>  (27) 
O=C(O)[C@@H](Cc1c[nH]c2ccccc12)C(=O)NO (chirality)
O=C(O)[C@@H](Cc1c[nH]c2ccccc12)C(=O)NO (3D coordinates assigned)
O=C(O)[C@@H](Cc1c[nH]c2ccccc12)C(=O)NO (optimized conformer: 56.76190645995466 kcal/mol)

$$$$
untitled_line_27
     RDKit          3D

 41 44  0  0  0  0  0  0  0  0999 V2000
   -3.1168    1.3158   -0.5946 O   0  0  0  0  0  0  0  0  0  0  0  0
   -2.2226    0.9218    0.2010 C   0  0  0  0  0  0  0  0  0  0  0  0
   -2.0389    1.5862    1.4106 O   0  0  0  0  0  0  0  0  0  0  0  0
   -1.3409   -0.2411   -0.1902 C   0  0  2  0  0  0  0  0  0  0  0  0
   -0.6386   -0.9145    1.0103 C   0  0  0  0  0  0  0  0  0  0  0  0
   -1.6211   -1.5667    1.9446 C   0  0  0  0  0  0  0  0  0  0  0  0
   -2.4011   -2.6865    1.6682 C   0  0  0  0  0  0  0  0  0  0  0  0
   -3.1846   -2.9906    2.7273 N   0  0  0  0  0  0  0  0  0  0  0  0
   -2.9065   -2.0745    3.6707 C   0  0  0  0  0  0  0  0  0  0  0  0
   -3.4676   -1.9784    4.9434 C   0  0  0  0  0  0  0  0  0  0  0  0
   -3.0280   -0.9360    5.7792 C   0  0  0  0  0  0  0  0  0  0  0  0
   -2.0474   -0.0244    5.3302 C   0  0  0  0  0  0  0  0  0  0  0  0
   -1.4977   -0.1457    4.0411 C   0  0  0  0  0  0  0  0  0  0  0  0
   -1.9557   -1.1875    3.2320 C   0  0  0  0  0  0  0  0  0  0  0  0
   -0.3433    0.1680   -1.2169 N   0  0  0  0  0  0  0  0  0  0  0  0
    0.5308    1.2067   -0.9758 C   0  0  0  0  0  0  0  0  0  0  0  0
    0.4970    1.8365    0.1168 O   0  0  0  0  0  0  0  0  0  0  0  0
    1.4488    1.5745   -1.9095 N   0  0  0  0  0  0  0  0  0  0  0  0
    1.5452    0.9305   -3.1006 C   0  0  0  0  0  0  0  0  0  0  0  0
    2.5008    1.3280   -4.0502 C   0  0  0  0  0  0  0  0  0  0  0  0
    2.5988    0.6577   -5.2719 C   0  0  0  0  0  0  0  0  0  0  0  0
    1.7469   -0.4120   -5.5539 C   0  0  0  0  0  0  0  0  0  0  0  0
    0.7927   -0.8159   -4.6159 C   0  0  0  0  0  0  0  0  0  0  0  0
    0.6844   -0.1457   -3.3811 C   0  0  0  0  0  0  0  0  0  0  0  0
   -0.2598   -0.5178   -2.4090 C   0  0  0  0  0  0  0  0  0  0  0  0
   -1.0293   -1.4926   -2.6418 O   0  0  0  0  0  0  0  0  0  0  0  0
   -2.6251    2.3712    1.6676 H   0  0  0  0  0  0  0  0  0  0  0  0
   -2.0383   -0.9990   -0.6084 H   0  0  0  0  0  0  0  0  0  0  0  0
   -0.0119   -0.1857    1.5631 H   0  0  0  0  0  0  0  0  0  0  0  0
    0.0449   -1.7030    0.6278 H   0  0  0  0  0  0  0  0  0  0  0  0
   -2.3965   -3.2449    0.7411 H   0  0  0  0  0  0  0  0  0  0  0  0
   -3.8668   -3.7784    2.7941 H   0  0  0  0  0  0  0  0  0  0  0  0
   -4.2175   -2.6829    5.2793 H   0  0  0  0  0  0  0  0  0  0  0  0
   -3.4434   -0.8329    6.7732 H   0  0  0  0  0  0  0  0  0  0  0  0
   -1.7158    0.7728    5.9826 H   0  0  0  0  0  0  0  0  0  0  0  0
   -0.7447    0.5506    3.6973 H   0  0  0  0  0  0  0  0  0  0  0  0
    2.0934    2.3708   -1.6965 H   0  0  0  0  0  0  0  0  0  0  0  0
    3.1691    2.1550   -3.8444 H   0  0  0  0  0  0  0  0  0  0  0  0
    3.3367    0.9675   -6.0007 H   0  0  0  0  0  0  0  0  0  0  0  0
    1.8259   -0.9294   -6.5013 H   0  0  0  0  0  0  0  0  0  0  0  0
    0.1438   -1.6482   -4.8589 H   0  0  0  0  0  0  0  0  0  0  0  0
  1  2  2  0
  2  3  1  0
  2  4  1  0
  4  5  1  0
  5  6  1  0
  6  7  2  0
  7  8  1  0
  8  9  1  0
  9 10  2  0
 10 11  1  0
 11 12  2  0
 12 13  1  0
 13 14  2  0
  4 15  1  0
 15 16  1  0
 16 17  2  0
 16 18  1  0
 18 19  1  0
 19 20  2  0
 20 21  1  0
 21 22  2  0
 22 23  1  0
 23 24  2  0
 24 25  1  0
 25 26  2  0
 14  6  1  0
 25 15  1  0
 14  9  1  0
 24 19  1  0
  3 27  1  0
  4 28  1  6
  5 29  1  0
  5 30  1  0
  7 31  1  0
  8 32  1  0
 10 33  1  0
 11 34  1  0
 12 35  1  0
 13 36  1  0
 18 37  1  0
 20 38  1  0
 21 39  1  0
 22 40  1  0
 23 41  1  0
M  END
>  <UniqueID>  (28) 
27

>  <SMILES>  (28) 
O=C(O)[C@H](Cc1c[nH]c2ccccc12)n1c(=O)[nH]c2ccccc2c1=O

>  <Energy>  (28) 
87.98926901431942

>  <Genealogy>  (28) 
O=C(O)[C@H](Cc1c[nH]c2ccccc12)n1c(=O)[nH]c2ccccc2c1=O (3D coordinates assigned)
O=C(O)[C@H](Cc1c[nH]c2ccccc12)n1c(=O)[nH]c2ccccc2c1=O (optimized conformer: 87.98926901431942 kcal/mol)

$$$$
untitled_line_28
     RDKit          3D

 45 48  0  0  0  0  0  0  0  0999 V2000
   -4.2413   -1.0582   -1.5912 H   0  0  0  0  0  0  0  0  0  0  0  0
   -3.6102   -0.9381   -0.8082 O   0  0  0  0  0  0  0  0  0  0  0  0
   -2.2310   -0.9133   -0.9995 C   0  0  0  0  0  0  0  0  0  0  0  0
   -1.7602   -1.0292   -2.1629 O   0  0  0  0  0  0  0  0  0  0  0  0
   -1.2973   -0.7051    0.1749 C   0  0  2  0  0  0  0  0  0  0  0  0
   -0.3121   -1.1351   -0.1205 H   0  0  0  0  0  0  0  0  0  0  0  0
   -1.7787   -1.5316    1.3918 C   0  0  0  0  0  0  0  0  0  0  0  0
   -1.9791   -2.5774    1.0711 H   0  0  0  0  0  0  0  0  0  0  0  0
   -2.7339   -1.1275    1.7883 H   0  0  0  0  0  0  0  0  0  0  0  0
   -0.7516   -1.5739    2.4876 C   0  0  0  0  0  0  0  0  0  0  0  0
   -0.7748   -0.8546    3.6792 C   0  0  0  0  0  0  0  0  0  0  0  0
   -1.5592   -0.1802    3.9951 H   0  0  0  0  0  0  0  0  0  0  0  0
    0.3375   -1.1083    4.4057 N   0  0  0  0  0  0  0  0  0  0  0  0
    0.5812   -0.7038    5.3371 H   0  0  0  0  0  0  0  0  0  0  0  0
    1.0634   -1.9785    3.6827 C   0  0  0  0  0  0  0  0  0  0  0  0
    2.2993   -2.5305    4.0171 C   0  0  0  0  0  0  0  0  0  0  0  0
    2.7909   -2.2800    4.9482 H   0  0  0  0  0  0  0  0  0  0  0  0
    2.8888   -3.4242    3.1043 C   0  0  0  0  0  0  0  0  0  0  0  0
    3.8478   -3.8707    3.3328 H   0  0  0  0  0  0  0  0  0  0  0  0
    2.2373   -3.7426    1.8920 C   0  0  0  0  0  0  0  0  0  0  0  0
    2.6999   -4.4320    1.1979 H   0  0  0  0  0  0  0  0  0  0  0  0
    0.9906   -3.1700    1.5809 C   0  0  0  0  0  0  0  0  0  0  0  0
    0.4851   -3.4121    0.6552 H   0  0  0  0  0  0  0  0  0  0  0  0
    0.4318   -2.2864    2.5050 C   0  0  0  0  0  0  0  0  0  0  0  0
   -1.1047    0.7367    0.5064 N   0  0  1  0  0  4  0  0  0  0  0  0
   -0.4819    0.8372    1.3436 H   0  0  0  0  0  0  0  0  0  0  0  0
   -0.4516    1.4305   -0.5684 C   0  0  0  0  0  0  0  0  0  0  0  0
    0.7283    1.1451   -0.9123 O   0  0  0  0  0  0  0  0  0  0  0  0
   -1.2395    2.4807   -1.2186 C   0  0  0  0  0  0  0  0  0  0  0  0
   -0.7912    3.4153   -2.0683 C   0  0  0  0  0  0  0  0  0  0  0  0
   -1.5044    4.0975   -2.5141 H   0  0  0  0  0  0  0  0  0  0  0  0
    0.6198    3.5501   -2.4743 C   0  0  0  0  0  0  0  0  0  0  0  0
    0.9661    3.2968   -3.8094 C   0  0  0  0  0  0  0  0  0  0  0  0
    0.2103    2.9880   -4.5215 H   0  0  0  0  0  0  0  0  0  0  0  0
    2.2920    3.4253   -4.2314 C   0  0  0  0  0  0  0  0  0  0  0  0
    2.5496    3.2168   -5.2620 H   0  0  0  0  0  0  0  0  0  0  0  0
    3.2802    3.8229   -3.3264 C   0  0  0  0  0  0  0  0  0  0  0  0
    4.9437    3.9846   -3.8590 Cl  0  0  0  0  0  0  0  0  0  0  0  0
    2.9403    4.1017   -1.9990 C   0  0  0  0  0  0  0  0  0  0  0  0
    3.7057    4.4242   -1.3041 H   0  0  0  0  0  0  0  0  0  0  0  0
    1.6142    3.9756   -1.5675 C   0  0  0  0  0  0  0  0  0  0  0  0
    1.2273    4.3902    0.0998 Cl  0  0  0  0  0  0  0  0  0  0  0  0
   -2.9346    2.4428   -0.6894 S   0  0  0  0  0  0  0  0  0  0  0  0
   -2.3554    1.4527    0.6958 C   0  0  0  0  0  0  0  0  0  0  0  0
   -2.8368    1.7712    2.0157 S   0  0  0  0  0  0  0  0  0  0  0  0
  1  2  1  0
  2  3  1  0
  3  4  2  0
  3  5  1  0
  5  6  1  6
  5  7  1  0
  7  8  1  0
  7  9  1  0
  7 10  1  0
 10 11  2  0
 11 12  1  0
 11 13  1  0
 13 14  1  0
 13 15  1  0
 15 16  2  0
 16 17  1  0
 16 18  1  0
 18 19  1  0
 18 20  2  0
 20 21  1  0
 20 22  1  0
 22 23  1  0
 22 24  2  0
  5 25  1  0
 25 26  1  1
 25 27  1  0
 27 28  2  0
 27 29  1  0
 29 30  2  0
 30 31  1  0
 30 32  1  0
 32 33  2  0
 33 34  1  0
 33 35  1  0
 35 36  1  0
 35 37  2  0
 37 38  1  0
 37 39  1  0
 39 40  1  0
 39 41  2  0
 41 42  1  0
 29 43  1  0
 43 44  1  0
 44 45  2  0
 24 10  1  0
 44 25  1  0
 24 15  1  0
 41 32  1  0
M  CHG  1  25   1
M  END
>  <UniqueID>  (29) 
28

>  <SMILES>  (29) 
O=C(O)[C@H](Cc1c[nH]c2ccccc12)[N@H+]1C(=O)/C(=C/c2ccc(Cl)cc2Cl)SC1=S

>  <Energy>  (29) 
108.09576417874322

>  <Genealogy>  (29) 
O=C(O)[C@H](Cc1c[nH]c2ccccc12)[NH+]1C(=O)/C(=C/c2ccc(Cl)cc2Cl)SC1=S (protonated)
O=C(O)[C@H](Cc1c[nH]c2ccccc12)[N@H+]1C(=O)/C(=C/c2ccc(Cl)cc2Cl)SC1=S (chirality)
O=C(O)[C@H](Cc1c[nH]c2ccccc12)[N@H+]1C(=O)/C(=C/c2ccc(Cl)cc2Cl)SC1=S (cis-trans isomerization)
O=C(O)[C@H](Cc1c[nH]c2ccccc12)[N@H+]1C(=O)/C(=C/c2ccc(Cl)cc2Cl)SC1=S (3D coordinates assigned)
O=C(O)[C@H](Cc1c[nH]c2ccccc12)[N@H+]1C(=O)/C(=C/c2ccc(Cl)cc2Cl)SC1=S (nonaromatic ring conformer: 108.09576417874322 kcal/mol)

$$$$
untitled_line_29
     RDKit          3D

 36 38  0  0  0  0  0  0  0  0999 V2000
    1.1176   -2.0841    1.3162 O   0  0  0  0  0  0  0  0  0  0  0  0
    1.2851   -1.2678    0.3708 C   0  0  0  0  0  0  0  0  0  0  0  0
    1.9100   -1.6880   -0.8003 O   0  0  0  0  0  0  0  0  0  0  0  0
    0.8352    0.1724    0.5286 C   0  0  2  0  0  0  0  0  0  0  0  0
    0.0747    0.6618   -0.7266 C   0  0  0  0  0  0  0  0  0  0  0  0
   -1.2208   -0.0770   -0.9093 C   0  0  0  0  0  0  0  0  0  0  0  0
   -1.4404   -1.1785   -1.7314 C   0  0  0  0  0  0  0  0  0  0  0  0
   -2.7091   -1.6263   -1.5913 N   0  0  0  0  0  0  0  0  0  0  0  0
   -3.2880   -0.8241   -0.6808 C   0  0  0  0  0  0  0  0  0  0  0  0
   -4.5913   -0.9030   -0.1918 C   0  0  0  0  0  0  0  0  0  0  0  0
   -4.9867    0.0345    0.7801 C   0  0  0  0  0  0  0  0  0  0  0  0
   -4.0800    1.0162    1.2385 C   0  0  0  0  0  0  0  0  0  0  0  0
   -2.7702    1.0707    0.7282 C   0  0  0  0  0  0  0  0  0  0  0  0
   -2.4093    0.1310   -0.2377 C   0  0  0  0  0  0  0  0  0  0  0  0
    1.9549    1.0898    0.8803 N   0  0  0  0  0  4  0  0  0  0  0  0
    3.0868    0.9946   -0.0012 C   0  0  0  0  0  0  0  0  0  0  0  0
    3.0402    1.3622   -1.1655 O   0  0  0  0  0  0  0  0  0  0  0  0
    4.3485    0.4960    0.6215 C   0  0  0  0  0  0  0  0  0  0  0  0
    3.9787    0.3236    2.0903 C   0  0  0  0  0  0  0  0  0  0  0  0
    2.5453    0.7360    2.1408 C   0  0  0  0  0  0  0  0  0  0  0  0
    1.9228    0.8000    3.1908 O   0  0  0  0  0  0  0  0  0  0  0  0
    2.2234   -2.6451   -0.9075 H   0  0  0  0  0  0  0  0  0  0  0  0
    0.0984    0.2018    1.3656 H   0  0  0  0  0  0  0  0  0  0  0  0
    0.6940    0.5344   -1.6393 H   0  0  0  0  0  0  0  0  0  0  0  0
   -0.1503    1.7455   -0.6293 H   0  0  0  0  0  0  0  0  0  0  0  0
   -0.7083   -1.6333   -2.3859 H   0  0  0  0  0  0  0  0  0  0  0  0
   -3.1426   -2.4394   -2.0825 H   0  0  0  0  0  0  0  0  0  0  0  0
   -5.2770   -1.6622   -0.5452 H   0  0  0  0  0  0  0  0  0  0  0  0
   -5.9913    0.0013    1.1811 H   0  0  0  0  0  0  0  0  0  0  0  0
   -4.3944    1.7303    1.9884 H   0  0  0  0  0  0  0  0  0  0  0  0
   -2.0691    1.8176    1.0773 H   0  0  0  0  0  0  0  0  0  0  0  0
    1.6299    2.0841    0.9293 H   0  0  0  0  0  0  0  0  0  0  0  0
    5.1600    1.2459    0.5018 H   0  0  0  0  0  0  0  0  0  0  0  0
    4.6450   -0.4727    0.1648 H   0  0  0  0  0  0  0  0  0  0  0  0
    4.5932    0.9873    2.7361 H   0  0  0  0  0  0  0  0  0  0  0  0
    4.0851   -0.7355    2.4095 H   0  0  0  0  0  0  0  0  0  0  0  0
  1  2  2  0
  2  3  1  0
  2  4  1  0
  4  5  1  0
  5  6  1  0
  6  7  2  0
  7  8  1  0
  8  9  1  0
  9 10  2  0
 10 11  1  0
 11 12  2  0
 12 13  1  0
 13 14  2  0
  4 15  1  0
 15 16  1  0
 16 17  2  0
 16 18  1  0
 18 19  1  0
 19 20  1  0
 20 21  2  0
 14  6  1  0
 20 15  1  0
 14  9  1  0
  3 22  1  0
  4 23  1  1
  5 24  1  0
  5 25  1  0
  7 26  1  0
  8 27  1  0
 10 28  1  0
 11 29  1  0
 12 30  1  0
 13 31  1  0
 15 32  1  0
 18 33  1  0
 18 34  1  0
 19 35  1  0
 19 36  1  0
M  CHG  1  15   1
M  END
>  <UniqueID>  (30) 
29

>  <SMILES>  (30) 
O=C(O)[C@H](Cc1c[nH]c2ccccc12)[NH+]1C(=O)CCC1=O

>  <Energy>  (30) 
73.55394460336771

>  <Genealogy>  (30) 
O=C(O)[C@H](Cc1c[nH]c2ccccc12)[NH+]1C(=O)CCC1=O (protonated)
O=C(O)[C@H](Cc1c[nH]c2ccccc12)[NH+]1C(=O)CCC1=O (3D coordinates assigned)
O=C(O)[C@H](Cc1c[nH]c2ccccc12)[NH+]1C(=O)CCC1=O (nonaromatic ring conformer: 73.55394460336771 kcal/mol)

$$$$
untitled_line_30
     RDKit          3D

 46 49  0  0  0  0  0  0  0  0999 V2000
    1.1012   -1.8891    1.2877 O   0  0  0  0  0  0  0  0  0  0  0  0
    0.5227   -0.7852    1.4758 C   0  0  0  0  0  0  0  0  0  0  0  0
   -0.7029   -0.7317    2.3308 C   0  0  0  0  0  0  0  0  0  0  0  0
   -1.9160   -0.5977    1.4623 C   0  0  0  0  0  0  0  0  0  0  0  0
   -2.4984   -1.6092    0.7022 C   0  0  0  0  0  0  0  0  0  0  0  0
   -3.5444   -1.1268   -0.0054 N   0  0  0  0  0  0  0  0  0  0  0  0
   -3.6205    0.1809    0.2916 C   0  0  0  0  0  0  0  0  0  0  0  0
   -4.5432    1.1032   -0.1976 C   0  0  0  0  0  0  0  0  0  0  0  0
   -4.4360    2.4354    0.2393 C   0  0  0  0  0  0  0  0  0  0  0  0
   -3.4158    2.8149    1.1406 C   0  0  0  0  0  0  0  0  0  0  0  0
   -2.4976    1.8629    1.6184 C   0  0  0  0  0  0  0  0  0  0  0  0
   -2.6360    0.5453    1.1756 C   0  0  0  0  0  0  0  0  0  0  0  0
    0.9942    0.4006    0.8218 N   0  0  0  0  0  0  0  0  0  0  0  0
    1.8569    0.3291   -0.3619 C   0  0  1  0  0  0  0  0  0  0  0  0
    1.7871    1.6309   -1.1829 C   0  0  0  0  0  0  0  0  0  0  0  0
    0.3738    2.0002   -1.5436 C   0  0  0  0  0  0  0  0  0  0  0  0
   -0.3336    3.1020   -1.0690 C   0  0  0  0  0  0  0  0  0  0  0  0
   -1.5799    3.1269   -1.5944 N   0  0  0  0  0  0  0  0  0  0  0  0
   -1.6703    2.0459   -2.3888 C   0  0  0  0  0  0  0  0  0  0  0  0
   -2.7722    1.6446   -3.1470 C   0  0  0  0  0  0  0  0  0  0  0  0
   -2.6461    0.4812   -3.9270 C   0  0  0  0  0  0  0  0  0  0  0  0
   -1.4322   -0.2429   -3.9404 C   0  0  0  0  0  0  0  0  0  0  0  0
   -0.3363    0.1845   -3.1663 C   0  0  0  0  0  0  0  0  0  0  0  0
   -0.4952    1.3358   -2.3903 C   0  0  0  0  0  0  0  0  0  0  0  0
    3.2760    0.0641    0.0536 C   0  0  0  0  0  0  0  0  0  0  0  0
    4.0314   -0.6254   -0.6866 O   0  0  0  0  0  0  0  0  0  0  0  0
    3.7780    0.6237    1.2279 O   0  0  0  0  0  0  0  0  0  0  0  0
   -0.6313    0.1220    3.0356 H   0  0  0  0  0  0  0  0  0  0  0  0
   -0.7862   -1.6604    2.9349 H   0  0  0  0  0  0  0  0  0  0  0  0
   -2.1699   -2.6403    0.6665 H   0  0  0  0  0  0  0  0  0  0  0  0
   -4.1604   -1.6633   -0.6561 H   0  0  0  0  0  0  0  0  0  0  0  0
   -5.3152    0.8064   -0.8946 H   0  0  0  0  0  0  0  0  0  0  0  0
   -5.1326    3.1762   -0.1269 H   0  0  0  0  0  0  0  0  0  0  0  0
   -3.3365    3.8445    1.4608 H   0  0  0  0  0  0  0  0  0  0  0  0
   -1.7117    2.1504    2.3029 H   0  0  0  0  0  0  0  0  0  0  0  0
    0.6142    1.3200    1.1347 H   0  0  0  0  0  0  0  0  0  0  0  0
    1.5125   -0.5096   -1.0070 H   0  0  0  0  0  0  0  0  0  0  0  0
    2.3719    1.5099   -2.1206 H   0  0  0  0  0  0  0  0  0  0  0  0
    2.2453    2.4635   -0.6033 H   0  0  0  0  0  0  0  0  0  0  0  0
    0.0461    3.8476   -0.3825 H   0  0  0  0  0  0  0  0  0  0  0  0
   -2.3172    3.8470   -1.4221 H   0  0  0  0  0  0  0  0  0  0  0  0
   -3.6966    2.2088   -3.1350 H   0  0  0  0  0  0  0  0  0  0  0  0
   -3.4841    0.1400   -4.5254 H   0  0  0  0  0  0  0  0  0  0  0  0
   -1.3444   -1.1339   -4.5528 H   0  0  0  0  0  0  0  0  0  0  0  0
    0.5982   -0.3615   -3.1859 H   0  0  0  0  0  0  0  0  0  0  0  0
    4.7381    0.4593    1.5139 H   0  0  0  0  0  0  0  0  0  0  0  0
  1  2  2  0
  2  3  1  0
  3  4  1  0
  4  5  2  0
  5  6  1  0
  6  7  1  0
  7  8  2  0
  8  9  1  0
  9 10  2  0
 10 11  1  0
 11 12  2  0
  2 13  1  0
 13 14  1  0
 14 15  1  0
 15 16  1  0
 16 17  2  0
 17 18  1  0
 18 19  1  0
 19 20  2  0
 20 21  1  0
 21 22  2  0
 22 23  1  0
 23 24  2  0
 14 25  1  0
 25 26  2  0
 25 27  1  0
 12  4  1  0
 24 16  1  0
 12  7  1  0
 24 19  1  0
  3 28  1  0
  3 29  1  0
  5 30  1  0
  6 31  1  0
  8 32  1  0
  9 33  1  0
 10 34  1  0
 11 35  1  0
 13 36  1  0
 14 37  1  6
 15 38  1  0
 15 39  1  0
 17 40  1  0
 18 41  1  0
 20 42  1  0
 21 43  1  0
 22 44  1  0
 23 45  1  0
 27 46  1  0
M  END
>  <UniqueID>  (31) 
30

>  <SMILES>  (31) 
O=C(Cc1c[nH]c2ccccc12)N[C@@H](Cc1c[nH]c2ccccc12)C(=O)O

>  <Energy>  (31) 
103.28012639023791

>  <Genealogy>  (31) 
O=C(Cc1c[nH]c2ccccc12)N[C@@H](Cc1c[nH]c2ccccc12)C(=O)O (3D coordinates assigned)
O=C(Cc1c[nH]c2ccccc12)N[C@@H](Cc1c[nH]c2ccccc12)C(=O)O (optimized conformer: 103.28012639023791 kcal/mol)

$$$$
untitled_line_31
     RDKit          3D

 31 32  0  0  0  0  0  0  0  0999 V2000
   -2.3265   -2.3971    1.6217 N   0  0  0  0  0  0  0  0  0  0  0  0
   -1.8160   -1.1038    1.3024 C   0  0  0  0  0  0  0  0  0  0  0  0
   -0.9427   -0.5810    2.0461 O   0  0  0  0  0  0  0  0  0  0  0  0
   -2.2936   -0.4125    0.1392 N   0  0  0  0  0  0  0  0  0  0  0  0
   -1.7398    0.8698   -0.3096 C   0  0  1  0  0  0  0  0  0  0  0  0
   -0.7839    0.6557   -1.4947 C   0  0  0  0  0  0  0  0  0  0  0  0
    0.3978   -0.1803   -1.0972 C   0  0  0  0  0  0  0  0  0  0  0  0
    0.5457   -1.5510   -1.2889 C   0  0  0  0  0  0  0  0  0  0  0  0
    1.6951   -1.9852   -0.7233 N   0  0  0  0  0  0  0  0  0  0  0  0
    2.2673   -0.9033   -0.1668 C   0  0  0  0  0  0  0  0  0  0  0  0
    3.4593   -0.8547    0.5547 C   0  0  0  0  0  0  0  0  0  0  0  0
    3.8627    0.3889    1.0749 C   0  0  0  0  0  0  0  0  0  0  0  0
    3.0725    1.5416    0.8682 C   0  0  0  0  0  0  0  0  0  0  0  0
    1.8726    1.4620    0.1381 C   0  0  0  0  0  0  0  0  0  0  0  0
    1.5025    0.2167   -0.3701 C   0  0  0  0  0  0  0  0  0  0  0  0
   -2.8571    1.7938   -0.7018 C   0  0  0  0  0  0  0  0  0  0  0  0
   -3.6822    1.4549   -1.5930 O   0  0  0  0  0  0  0  0  0  0  0  0
   -2.9762    3.0355   -0.0850 O   0  0  0  0  0  0  0  0  0  0  0  0
   -1.9803   -2.9077    2.4642 H   0  0  0  0  0  0  0  0  0  0  0  0
   -3.0476   -2.8479    1.0164 H   0  0  0  0  0  0  0  0  0  0  0  0
   -2.9726   -0.9081   -0.4824 H   0  0  0  0  0  0  0  0  0  0  0  0
   -1.1782    1.3570    0.5178 H   0  0  0  0  0  0  0  0  0  0  0  0
   -1.3206    0.1592   -2.3328 H   0  0  0  0  0  0  0  0  0  0  0  0
   -0.4179    1.6387   -1.8637 H   0  0  0  0  0  0  0  0  0  0  0  0
   -0.1589   -2.1966   -1.7968 H   0  0  0  0  0  0  0  0  0  0  0  0
    2.0521   -2.9664   -0.7075 H   0  0  0  0  0  0  0  0  0  0  0  0
    4.0542   -1.7447    0.7140 H   0  0  0  0  0  0  0  0  0  0  0  0
    4.7826    0.4618    1.6401 H   0  0  0  0  0  0  0  0  0  0  0  0
    3.3910    2.4921    1.2760 H   0  0  0  0  0  0  0  0  0  0  0  0
    1.2599    2.3399   -0.0202 H   0  0  0  0  0  0  0  0  0  0  0  0
   -3.7212    3.6728   -0.3399 H   0  0  0  0  0  0  0  0  0  0  0  0
  1  2  1  0
  2  3  2  0
  2  4  1  0
  4  5  1  0
  5  6  1  0
  6  7  1  0
  7  8  2  0
  8  9  1  0
  9 10  1  0
 10 11  2  0
 11 12  1  0
 12 13  2  0
 13 14  1  0
 14 15  2  0
  5 16  1  0
 16 17  2  0
 16 18  1  0
 15  7  1  0
 15 10  1  0
  1 19  1  0
  1 20  1  0
  4 21  1  0
  5 22  1  1
  6 23  1  0
  6 24  1  0
  8 25  1  0
  9 26  1  0
 11 27  1  0
 12 28  1  0
 13 29  1  0
 14 30  1  0
 18 31  1  0
M  END
>  <UniqueID>  (32) 
31

>  <SMILES>  (32) 
NC(=O)N[C@@H](Cc1c[nH]c2ccccc12)C(=O)O

>  <Energy>  (32) 
56.457991791833166

>  <Genealogy>  (32) 
NC(=O)N[C@@H](Cc1c[nH]c2ccccc12)C(=O)O (3D coordinates assigned)
NC(=O)N[C@@H](Cc1c[nH]c2ccccc12)C(=O)O (optimized conformer: 56.457991791833166 kcal/mol)

$$$$
untitled_line_32
     RDKit          3D

 34 35  0  0  0  0  0  0  0  0999 V2000
   -1.3707    2.1463    2.2268 O   0  0  0  0  0  0  0  0  0  0  0  0
   -0.1446    1.9063    2.3912 C   0  0  0  0  0  0  0  0  0  0  0  0
    0.7028    2.9057    2.8589 O   0  0  0  0  0  0  0  0  0  0  0  0
    0.4086    0.5491    2.0654 C   0  0  0  0  0  0  0  0  0  0  0  0
    1.2358    0.5782    0.8445 N   0  0  0  0  0  4  0  0  0  0  0  0
    0.4338    0.7142   -0.4037 C   0  0  2  0  0  0  0  0  0  0  0  0
    0.2160   -0.6435   -1.1149 C   0  0  0  0  0  0  0  0  0  0  0  0
   -0.6598   -1.5683   -0.3208 C   0  0  0  0  0  0  0  0  0  0  0  0
   -2.0411   -1.4726   -0.1785 C   0  0  0  0  0  0  0  0  0  0  0  0
   -2.4974   -2.4318    0.6583 N   0  0  0  0  0  0  0  0  0  0  0  0
   -1.4164   -3.1281    1.0506 C   0  0  0  0  0  0  0  0  0  0  0  0
   -1.3827   -4.2068    1.9331 C   0  0  0  0  0  0  0  0  0  0  0  0
   -0.1316   -4.7810    2.2225 C   0  0  0  0  0  0  0  0  0  0  0  0
    1.0446   -4.2686    1.6319 C   0  0  0  0  0  0  0  0  0  0  0  0
    0.9810   -3.1779    0.7459 C   0  0  0  0  0  0  0  0  0  0  0  0
   -0.2742   -2.6307    0.4755 C   0  0  0  0  0  0  0  0  0  0  0  0
    1.1157    1.6613   -1.3647 C   0  0  0  0  0  0  0  0  0  0  0  0
    2.2744    1.4032   -1.7871 O   0  0  0  0  0  0  0  0  0  0  0  0
    0.4811    2.8252   -1.7912 O   0  0  0  0  0  0  0  0  0  0  0  0
    0.3470    3.8291    3.0752 H   0  0  0  0  0  0  0  0  0  0  0  0
   -0.4185   -0.1850    1.9726 H   0  0  0  0  0  0  0  0  0  0  0  0
    1.0344    0.2191    2.9235 H   0  0  0  0  0  0  0  0  0  0  0  0
    1.8083   -0.2972    0.8155 H   0  0  0  0  0  0  0  0  0  0  0  0
    1.9217    1.3653    0.9402 H   0  0  0  0  0  0  0  0  0  0  0  0
   -0.5708    1.1393   -0.1820 H   0  0  0  0  0  0  0  0  0  0  0  0
    1.1916   -1.1306   -1.3286 H   0  0  0  0  0  0  0  0  0  0  0  0
   -0.2794   -0.4688   -2.0954 H   0  0  0  0  0  0  0  0  0  0  0  0
   -2.6735   -0.7319   -0.6502 H   0  0  0  0  0  0  0  0  0  0  0  0
   -3.4881   -2.5877    0.9491 H   0  0  0  0  0  0  0  0  0  0  0  0
   -2.2889   -4.5894    2.3845 H   0  0  0  0  0  0  0  0  0  0  0  0
   -0.0700   -5.6195    2.9039 H   0  0  0  0  0  0  0  0  0  0  0  0
    2.0018   -4.7173    1.8634 H   0  0  0  0  0  0  0  0  0  0  0  0
    1.8805   -2.7824    0.2937 H   0  0  0  0  0  0  0  0  0  0  0  0
   -0.4484    3.0695   -1.4716 H   0  0  0  0  0  0  0  0  0  0  0  0
  1  2  2  0
  2  3  1  0
  2  4  1  0
  4  5  1  0
  5  6  1  0
  6  7  1  0
  7  8  1  0
  8  9  2  0
  9 10  1  0
 10 11  1  0
 11 12  2  0
 12 13  1  0
 13 14  2  0
 14 15  1  0
 15 16  2  0
  6 17  1  0
 17 18  2  0
 17 19  1  0
 16  8  1  0
 16 11  1  0
  3 20  1  0
  4 21  1  0
  4 22  1  0
  5 23  1  0
  5 24  1  0
  6 25  1  1
  7 26  1  0
  7 27  1  0
  9 28  1  0
 10 29  1  0
 12 30  1  0
 13 31  1  0
 14 32  1  0
 15 33  1  0
 19 34  1  0
M  CHG  1   5   1
M  END
>  <UniqueID>  (33) 
32

>  <SMILES>  (33) 
O=C(O)C[NH2+][C@H](Cc1c[nH]c2ccccc12)C(=O)O

>  <Energy>  (33) 
65.95268047956522

>  <Genealogy>  (33) 
O=C(O)C[NH2+][C@H](Cc1c[nH]c2ccccc12)C(=O)O (protonated)
O=C(O)C[NH2+][C@H](Cc1c[nH]c2ccccc12)C(=O)O (3D coordinates assigned)
O=C(O)C[NH2+][C@H](Cc1c[nH]c2ccccc12)C(=O)O (optimized conformer: 65.95268047956522 kcal/mol)

$$$$
untitled_line_33
     RDKit          3D

 39 40  0  0  0  0  0  0  0  0999 V2000
    0.7971    1.0931    1.1704 O   0  0  0  0  0  0  0  0  0  0  0  0
    0.4471    2.1564    0.5896 C   0  0  0  0  0  0  0  0  0  0  0  0
    0.8371    3.4798    1.1820 C   0  0  0  0  0  0  0  0  0  0  0  0
    2.3113    3.8143    0.9076 C   0  0  0  0  0  0  0  0  0  0  0  0
    2.6214    4.0728   -0.5733 C   0  0  0  0  0  0  0  0  0  0  0  0
    1.9336    5.6638   -1.1376 S   0  0  0  0  0  0  0  0  0  0  0  0
   -0.2855    2.1020   -0.6438 N   0  0  0  0  0  0  0  0  0  0  0  0
   -0.6619    0.8332   -1.2739 C   0  0  1  0  0  0  0  0  0  0  0  0
   -1.9080    0.2514   -0.5822 C   0  0  0  0  0  0  0  0  0  0  0  0
   -2.2431   -1.1154   -1.1060 C   0  0  0  0  0  0  0  0  0  0  0  0
   -3.1851   -1.4224   -2.0832 C   0  0  0  0  0  0  0  0  0  0  0  0
   -3.1668   -2.7472   -2.3561 N   0  0  0  0  0  0  0  0  0  0  0  0
   -2.2145   -3.2760   -1.5679 C   0  0  0  0  0  0  0  0  0  0  0  0
   -1.8134   -4.6098   -1.5052 C   0  0  0  0  0  0  0  0  0  0  0  0
   -0.7751   -4.9430   -0.6158 C   0  0  0  0  0  0  0  0  0  0  0  0
   -0.1660   -3.9466    0.1792 C   0  0  0  0  0  0  0  0  0  0  0  0
   -0.5903   -2.6080    0.0934 C   0  0  0  0  0  0  0  0  0  0  0  0
   -1.6248   -2.3098   -0.7937 C   0  0  0  0  0  0  0  0  0  0  0  0
   -0.8955    1.0379   -2.7511 C   0  0  0  0  0  0  0  0  0  0  0  0
   -0.1945    0.4085   -3.5867 O   0  0  0  0  0  0  0  0  0  0  0  0
   -1.8806    1.9089   -3.2116 O   0  0  0  0  0  0  0  0  0  0  0  0
    0.6841    3.4316    2.2818 H   0  0  0  0  0  0  0  0  0  0  0  0
    0.1761    4.2866    0.8021 H   0  0  0  0  0  0  0  0  0  0  0  0
    2.5941    4.7122    1.4989 H   0  0  0  0  0  0  0  0  0  0  0  0
    2.9469    2.9752    1.2667 H   0  0  0  0  0  0  0  0  0  0  0  0
    2.2466    3.2468   -1.2137 H   0  0  0  0  0  0  0  0  0  0  0  0
    3.7237    4.1206   -0.6989 H   0  0  0  0  0  0  0  0  0  0  0  0
    0.6674    5.1209   -1.4210 H   0  0  0  0  0  0  0  0  0  0  0  0
   -0.5767    3.0025   -1.0869 H   0  0  0  0  0  0  0  0  0  0  0  0
    0.1812    0.1150   -1.1562 H   0  0  0  0  0  0  0  0  0  0  0  0
   -2.7785    0.9285   -0.7183 H   0  0  0  0  0  0  0  0  0  0  0  0
   -1.7252    0.1736    0.5108 H   0  0  0  0  0  0  0  0  0  0  0  0
   -3.8374   -0.7131   -2.5758 H   0  0  0  0  0  0  0  0  0  0  0  0
   -3.7631   -3.2507   -3.0500 H   0  0  0  0  0  0  0  0  0  0  0  0
   -2.2824   -5.3653   -2.1223 H   0  0  0  0  0  0  0  0  0  0  0  0
   -0.4393   -5.9692   -0.5425 H   0  0  0  0  0  0  0  0  0  0  0  0
    0.6335   -4.2142    0.8577 H   0  0  0  0  0  0  0  0  0  0  0  0
   -0.1261   -1.8389    0.6969 H   0  0  0  0  0  0  0  0  0  0  0  0
   -2.4647    2.4347   -2.5731 H   0  0  0  0  0  0  0  0  0  0  0  0
  1  2  2  0
  2  3  1  0
  3  4  1  0
  4  5  1  0
  5  6  1  0
  2  7  1  0
  7  8  1  0
  8  9  1  0
  9 10  1  0
 10 11  2  0
 11 12  1  0
 12 13  1  0
 13 14  2  0
 14 15  1  0
 15 16  2  0
 16 17  1  0
 17 18  2  0
  8 19  1  0
 19 20  2  0
 19 21  1  0
 18 10  1  0
 18 13  1  0
  3 22  1  0
  3 23  1  0
  4 24  1  0
  4 25  1  0
  5 26  1  0
  5 27  1  0
  6 28  1  0
  7 29  1  0
  8 30  1  6
  9 31  1  0
  9 32  1  0
 11 33  1  0
 12 34  1  0
 14 35  1  0
 15 36  1  0
 16 37  1  0
 17 38  1  0
 21 39  1  0
M  END
>  <UniqueID>  (34) 
33

>  <SMILES>  (34) 
O=C(CCCS)N[C@@H](Cc1c[nH]c2ccccc12)C(=O)O

>  <Energy>  (34) 
60.81513231718266

>  <Genealogy>  (34) 
O=C(CCCS)N[C@@H](Cc1c[nH]c2ccccc12)C(=O)O (3D coordinates assigned)
O=C(CCCS)N[C@@H](Cc1c[nH]c2ccccc12)C(=O)O (optimized conformer: 60.81513231718266 kcal/mol)

$$$$
untitled_line_34
     RDKit          3D

 45 48  0  0  0  0  0  0  0  0999 V2000
   -0.4993   -5.6833    0.0817 H   0  0  0  0  0  0  0  0  0  0  0  0
   -1.2047   -5.5794    0.8012 O   0  0  0  0  0  0  0  0  0  0  0  0
   -1.4222   -4.3553    1.4278 C   0  0  0  0  0  0  0  0  0  0  0  0
   -2.3344   -4.2651    2.2927 O   0  0  0  0  0  0  0  0  0  0  0  0
   -0.6081   -3.1413    1.0302 C   0  0  2  0  0  0  0  0  0  0  0  0
    0.3999   -3.5451    0.7974 H   0  0  0  0  0  0  0  0  0  0  0  0
   -0.4426   -2.1784    2.2466 C   0  0  0  0  0  0  0  0  0  0  0  0
   -1.4323   -1.7789    2.5567 H   0  0  0  0  0  0  0  0  0  0  0  0
   -0.0505   -2.7576    3.1108 H   0  0  0  0  0  0  0  0  0  0  0  0
    0.5038   -1.0327    2.0127 C   0  0  0  0  0  0  0  0  0  0  0  0
    0.1805    0.3201    2.0834 C   0  0  0  0  0  0  0  0  0  0  0  0
   -0.7992    0.7235    2.3031 H   0  0  0  0  0  0  0  0  0  0  0  0
    1.2669    1.0829    1.8316 N   0  0  0  0  0  0  0  0  0  0  0  0
    1.3071    2.1261    1.8140 H   0  0  0  0  0  0  0  0  0  0  0  0
    2.2808    0.2267    1.6232 C   0  0  0  0  0  0  0  0  0  0  0  0
    3.6070    0.5477    1.3391 C   0  0  0  0  0  0  0  0  0  0  0  0
    3.9250    1.5777    1.2426 H   0  0  0  0  0  0  0  0  0  0  0  0
    4.5212   -0.5096    1.1866 C   0  0  0  0  0  0  0  0  0  0  0  0
    5.5588   -0.2952    0.9663 H   0  0  0  0  0  0  0  0  0  0  0  0
    4.0966   -1.8484    1.3315 C   0  0  0  0  0  0  0  0  0  0  0  0
    4.8120   -2.6535    1.2259 H   0  0  0  0  0  0  0  0  0  0  0  0
    2.7518   -2.1433    1.6197 C   0  0  0  0  0  0  0  0  0  0  0  0
    2.4336   -3.1672    1.7552 H   0  0  0  0  0  0  0  0  0  0  0  0
    1.8611   -1.0751    1.7431 C   0  0  0  0  0  0  0  0  0  0  0  0
   -1.1748   -2.5231   -0.2080 N   0  0  2  0  0  4  0  0  0  0  0  0
   -1.4578   -3.2764   -0.8817 H   0  0  0  0  0  0  0  0  0  0  0  0
   -0.1993   -1.7296   -0.8994 C   0  0  0  0  0  0  0  0  0  0  0  0
    0.8582   -2.2431   -1.3599 O   0  0  0  0  0  0  0  0  0  0  0  0
   -0.5174   -0.3182   -1.0815 C   0  0  0  0  0  0  0  0  0  0  0  0
    0.3751    0.5762   -1.5368 C   0  0  0  0  0  0  0  0  0  0  0  0
    1.3774    0.2377   -1.7729 H   0  0  0  0  0  0  0  0  0  0  0  0
    0.1235    2.0286   -1.6314 C   0  0  0  0  0  0  0  0  0  0  0  0
    1.1169    2.9207   -1.1991 C   0  0  0  0  0  0  0  0  0  0  0  0
    2.0413    2.5475   -0.7749 H   0  0  0  0  0  0  0  0  0  0  0  0
    0.9179    4.3011   -1.2958 C   0  0  0  0  0  0  0  0  0  0  0  0
    1.6856    4.9795   -0.9460 H   0  0  0  0  0  0  0  0  0  0  0  0
   -0.2663    4.8020   -1.8455 C   0  0  0  0  0  0  0  0  0  0  0  0
   -0.5134    6.5341   -1.9690 Cl  0  0  0  0  0  0  0  0  0  0  0  0
   -1.2477    3.9198   -2.3084 C   0  0  0  0  0  0  0  0  0  0  0  0
   -2.1583    4.3026   -2.7514 H   0  0  0  0  0  0  0  0  0  0  0  0
   -1.0518    2.5388   -2.2112 C   0  0  0  0  0  0  0  0  0  0  0  0
   -1.8071    1.8723   -2.6073 H   0  0  0  0  0  0  0  0  0  0  0  0
   -2.1106    0.0961   -0.3944 S   0  0  0  0  0  0  0  0  0  0  0  0
   -2.3032   -1.6409    0.0316 C   0  0  0  0  0  0  0  0  0  0  0  0
   -3.6373   -2.1650    0.1736 S   0  0  0  0  0  0  0  0  0  0  0  0
  1  2  1  0
  2  3  1  0
  3  4  2  0
  3  5  1  0
  5  6  1  6
  5  7  1  0
  7  8  1  0
  7  9  1  0
  7 10  1  0
 10 11  2  0
 11 12  1  0
 11 13  1  0
 13 14  1  0
 13 15  1  0
 15 16  2  0
 16 17  1  0
 16 18  1  0
 18 19  1  0
 18 20  2  0
 20 21  1  0
 20 22  1  0
 22 23  1  0
 22 24  2  0
  5 25  1  0
 25 26  1  6
 25 27  1  0
 27 28  2  0
 27 29  1  0
 29 30  2  0
 30 31  1  0
 30 32  1  0
 32 33  2  0
 33 34  1  0
 33 35  1  0
 35 36  1  0
 35 37  2  0
 37 38  1  0
 37 39  1  0
 39 40  1  0
 39 41  2  0
 41 42  1  0
 29 43  1  0
 43 44  1  0
 44 45  2  0
 24 10  1  0
 44 25  1  0
 24 15  1  0
 41 32  1  0
M  CHG  1  25   1
M  END
>  <UniqueID>  (35) 
34

>  <SMILES>  (35) 
O=C(O)[C@H](Cc1c[nH]c2ccccc12)[N@@H+]1C(=O)/C(=C/c2ccc(Cl)cc2)SC1=S

>  <Energy>  (35) 
105.28527944189852

>  <Genealogy>  (35) 
O=C(O)[C@H](Cc1c[nH]c2ccccc12)[NH+]1C(=O)/C(=C/c2ccc(Cl)cc2)SC1=S (protonated)
O=C(O)[C@H](Cc1c[nH]c2ccccc12)[N@@H+]1C(=O)/C(=C/c2ccc(Cl)cc2)SC1=S (chirality)
O=C(O)[C@H](Cc1c[nH]c2ccccc12)[N@@H+]1C(=O)/C(=C/c2ccc(Cl)cc2)SC1=S (cis-trans isomerization)
O=C(O)[C@H](Cc1c[nH]c2ccccc12)[N@@H+]1C(=O)/C(=C/c2ccc(Cl)cc2)SC1=S (3D coordinates assigned)
O=C(O)[C@H](Cc1c[nH]c2ccccc12)[N@@H+]1C(=O)/C(=C/c2ccc(Cl)cc2)SC1=S (nonaromatic ring conformer: 105.28527944189852 kcal/mol)

$$$$
untitled_line_35
     RDKit          3D

 54 57  0  0  0  0  0  0  0  0999 V2000
    1.2098    0.3205    3.4272 O   0  0  0  0  0  0  0  0  0  0  0  0
    0.2011    0.6088    2.7289 C   0  0  0  0  0  0  0  0  0  0  0  0
   -0.8891    1.2393    3.3230 O   0  0  0  0  0  0  0  0  0  0  0  0
    0.1770    0.2541    1.2558 C   0  0  2  0  0  0  0  0  0  0  0  0
   -0.3778    1.4254    0.4038 C   0  0  0  0  0  0  0  0  0  0  0  0
    0.5802    2.5824    0.3807 C   0  0  0  0  0  0  0  0  0  0  0  0
    0.5043    3.7431    1.1444 C   0  0  0  0  0  0  0  0  0  0  0  0
    1.5852    4.5255    0.9210 N   0  0  0  0  0  0  0  0  0  0  0  0
    2.3474    3.8627    0.0333 C   0  0  0  0  0  0  0  0  0  0  0  0
    3.5812    4.2568   -0.4830 C   0  0  0  0  0  0  0  0  0  0  0  0
    4.2253    3.3878   -1.3832 C   0  0  0  0  0  0  0  0  0  0  0  0
    3.6306    2.1569   -1.7400 C   0  0  0  0  0  0  0  0  0  0  0  0
    2.3852    1.7850   -1.2026 C   0  0  0  0  0  0  0  0  0  0  0  0
    1.7688    2.6703   -0.3173 C   0  0  0  0  0  0  0  0  0  0  0  0
   -0.5368   -1.0329    0.9754 N   0  0  0  0  0  4  0  0  0  0  0  0
    0.2557   -2.2089    1.4298 C   0  0  0  0  0  0  0  0  0  0  0  0
    1.5140   -2.4015    0.6117 C   0  0  0  0  0  0  0  0  0  0  0  0
    1.4294   -2.8441   -0.7192 C   0  0  0  0  0  0  0  0  0  0  0  0
    2.5869   -2.9814   -1.4914 C   0  0  0  0  0  0  0  0  0  0  0  0
    3.8356   -2.6798   -0.9416 C   0  0  0  0  0  0  0  0  0  0  0  0
    3.9294   -2.2441    0.3828 C   0  0  0  0  0  0  0  0  0  0  0  0
    2.7747   -2.1067    1.1591 C   0  0  0  0  0  0  0  0  0  0  0  0
   -1.9032   -1.0704    1.5655 C   0  0  0  0  0  0  0  0  0  0  0  0
   -2.7805   -2.1075    0.9001 C   0  0  0  0  0  0  0  0  0  0  0  0
   -3.0980   -3.3073    1.5599 C   0  0  0  0  0  0  0  0  0  0  0  0
   -3.8975   -4.2667    0.9310 C   0  0  0  0  0  0  0  0  0  0  0  0
   -4.3860   -4.0362   -0.3578 C   0  0  0  0  0  0  0  0  0  0  0  0
   -4.0763   -2.8453   -1.0202 C   0  0  0  0  0  0  0  0  0  0  0  0
   -3.2771   -1.8833   -0.3952 C   0  0  0  0  0  0  0  0  0  0  0  0
   -0.8800    1.4745    4.3081 H   0  0  0  0  0  0  0  0  0  0  0  0
    1.2364    0.1448    0.9377 H   0  0  0  0  0  0  0  0  0  0  0  0
   -0.5343    1.0921   -0.6444 H   0  0  0  0  0  0  0  0  0  0  0  0
   -1.3596    1.7753    0.7855 H   0  0  0  0  0  0  0  0  0  0  0  0
   -0.2894    3.9925    1.8365 H   0  0  0  0  0  0  0  0  0  0  0  0
    1.7915    5.4477    1.3653 H   0  0  0  0  0  0  0  0  0  0  0  0
    4.0330    5.1979   -0.1972 H   0  0  0  0  0  0  0  0  0  0  0  0
    5.1848    3.6625   -1.8015 H   0  0  0  0  0  0  0  0  0  0  0  0
    4.1376    1.4940   -2.4291 H   0  0  0  0  0  0  0  0  0  0  0  0
    1.9268    0.8404   -1.4666 H   0  0  0  0  0  0  0  0  0  0  0  0
   -0.6368   -1.1124   -0.0646 H   0  0  0  0  0  0  0  0  0  0  0  0
   -0.3377   -3.1428    1.3260 H   0  0  0  0  0  0  0  0  0  0  0  0
    0.5002   -2.1236    2.5117 H   0  0  0  0  0  0  0  0  0  0  0  0
    0.4672   -3.0763   -1.1590 H   0  0  0  0  0  0  0  0  0  0  0  0
    2.5153   -3.3189   -2.5173 H   0  0  0  0  0  0  0  0  0  0  0  0
    4.7304   -2.7838   -1.5416 H   0  0  0  0  0  0  0  0  0  0  0  0
    4.8970   -2.0095    0.8072 H   0  0  0  0  0  0  0  0  0  0  0  0
    2.8625   -1.7585    2.1805 H   0  0  0  0  0  0  0  0  0  0  0  0
   -2.4153   -0.0931    1.4474 H   0  0  0  0  0  0  0  0  0  0  0  0
   -1.8503   -1.2603    2.6617 H   0  0  0  0  0  0  0  0  0  0  0  0
   -2.7227   -3.5021    2.5569 H   0  0  0  0  0  0  0  0  0  0  0  0
   -4.1373   -5.1899    1.4426 H   0  0  0  0  0  0  0  0  0  0  0  0
   -5.0043   -4.7802   -0.8432 H   0  0  0  0  0  0  0  0  0  0  0  0
   -4.4550   -2.6678   -2.0184 H   0  0  0  0  0  0  0  0  0  0  0  0
   -3.0432   -0.9647   -0.9193 H   0  0  0  0  0  0  0  0  0  0  0  0
  1  2  2  0
  2  3  1  0
  2  4  1  0
  4  5  1  0
  5  6  1  0
  6  7  2  0
  7  8  1  0
  8  9  1  0
  9 10  2  0
 10 11  1  0
 11 12  2  0
 12 13  1  0
 13 14  2  0
  4 15  1  0
 15 16  1  0
 16 17  1  0
 17 18  2  0
 18 19  1  0
 19 20  2  0
 20 21  1  0
 21 22  2  0
 15 23  1  0
 23 24  1  0
 24 25  2  0
 25 26  1  0
 26 27  2  0
 27 28  1  0
 28 29  2  0
 14  6  1  0
 22 17  1  0
 29 24  1  0
 14  9  1  0
  3 30  1  0
  4 31  1  6
  5 32  1  0
  5 33  1  0
  7 34  1  0
  8 35  1  0
 10 36  1  0
 11 37  1  0
 12 38  1  0
 13 39  1  0
 15 40  1  0
 16 41  1  0
 16 42  1  0
 18 43  1  0
 19 44  1  0
 20 45  1  0
 21 46  1  0
 22 47  1  0
 23 48  1  0
 23 49  1  0
 25 50  1  0
 26 51  1  0
 27 52  1  0
 28 53  1  0
 29 54  1  0
M  CHG  1  15   1
M  END
>  <UniqueID>  (36) 
35

>  <SMILES>  (36) 
O=C(O)[C@H](Cc1c[nH]c2ccccc12)[NH+](Cc1ccccc1)Cc1ccccc1

>  <Energy>  (36) 
94.93899174738296

>  <Genealogy>  (36) 
O=C(O)[C@H](Cc1c[nH]c2ccccc12)[NH+](Cc1ccccc1)Cc1ccccc1 (protonated)
O=C(O)[C@H](Cc1c[nH]c2ccccc12)[NH+](Cc1ccccc1)Cc1ccccc1 (3D coordinates assigned)
O=C(O)[C@H](Cc1c[nH]c2ccccc12)[NH+](Cc1ccccc1)Cc1ccccc1 (optimized conformer: 94.93899174738296 kcal/mol)

$$$$
untitled_line_36
     RDKit          3D

 42 45  0  0  0  0  0  0  0  0999 V2000
   -4.1813   -0.8782   -0.9383 O   0  0  0  0  0  0  0  0  0  0  0  0
   -3.1750   -0.1282   -1.0534 C   0  0  0  0  0  0  0  0  0  0  0  0
   -3.3146    1.1216   -1.6506 O   0  0  0  0  0  0  0  0  0  0  0  0
   -1.8225   -0.6121   -0.5843 C   0  0  2  0  0  0  0  0  0  0  0  0
   -1.0244    0.5262    0.1177 C   0  0  0  0  0  0  0  0  0  0  0  0
   -1.6745    0.9501    1.4217 C   0  0  0  0  0  0  0  0  0  0  0  0
   -2.4686    2.1069    1.4243 C   0  0  0  0  0  0  0  0  0  0  0  0
   -3.1041    2.5222    2.5938 C   0  0  0  0  0  0  0  0  0  0  0  0
   -3.8132    3.5638    2.5838 O   0  0  0  0  0  0  0  0  0  0  0  0
   -2.9622    1.8085    3.7419 N   0  0  0  0  0  0  0  0  0  0  0  0
   -2.2052    0.6751    3.7905 C   0  0  0  0  0  0  0  0  0  0  0  0
   -2.0870   -0.0357    4.9959 C   0  0  0  0  0  0  0  0  0  0  0  0
   -1.3180   -1.1977    5.0576 C   0  0  0  0  0  0  0  0  0  0  0  0
   -0.6599   -1.6620    3.9197 C   0  0  0  0  0  0  0  0  0  0  0  0
   -0.7647   -0.9681    2.7121 C   0  0  0  0  0  0  0  0  0  0  0  0
   -1.5379    0.2106    2.6256 C   0  0  0  0  0  0  0  0  0  0  0  0
   -1.0842   -1.2529   -1.7069 N   0  0  0  0  0  4  0  0  0  0  0  0
    0.0836   -1.9646   -1.2391 C   0  0  0  0  0  0  0  0  0  0  0  0
    0.0268   -2.9573   -0.4643 O   0  0  0  0  0  0  0  0  0  0  0  0
    1.3168   -1.4383   -1.8037 C   0  0  0  0  0  0  0  0  0  0  0  0
    2.6457   -1.8116   -1.6073 C   0  0  0  0  0  0  0  0  0  0  0  0
    3.6385   -1.1070   -2.3118 C   0  0  0  0  0  0  0  0  0  0  0  0
    3.2830   -0.0592   -3.1890 C   0  0  0  0  0  0  0  0  0  0  0  0
    1.9323    0.2909   -3.3670 C   0  0  0  0  0  0  0  0  0  0  0  0
    0.9728   -0.4238   -2.6512 C   0  0  0  0  0  0  0  0  0  0  0  0
   -0.4777   -0.3115   -2.6233 C   0  0  0  0  0  0  0  0  0  0  0  0
   -1.1393    0.4678   -3.3599 O   0  0  0  0  0  0  0  0  0  0  0  0
   -4.2176    1.4442   -1.9768 H   0  0  0  0  0  0  0  0  0  0  0  0
   -2.0251   -1.3963    0.1809 H   0  0  0  0  0  0  0  0  0  0  0  0
   -0.9337    1.4004   -0.5636 H   0  0  0  0  0  0  0  0  0  0  0  0
    0.0212    0.2152    0.3169 H   0  0  0  0  0  0  0  0  0  0  0  0
   -2.5950    2.6881    0.5183 H   0  0  0  0  0  0  0  0  0  0  0  0
   -3.4512    2.1445    4.6038 H   0  0  0  0  0  0  0  0  0  0  0  0
   -2.5921    0.3105    5.8892 H   0  0  0  0  0  0  0  0  0  0  0  0
   -1.2323   -1.7403    5.9902 H   0  0  0  0  0  0  0  0  0  0  0  0
   -0.0651   -2.5649    3.9729 H   0  0  0  0  0  0  0  0  0  0  0  0
   -0.2382   -1.3693    1.8591 H   0  0  0  0  0  0  0  0  0  0  0  0
   -1.6942   -1.9190   -2.2371 H   0  0  0  0  0  0  0  0  0  0  0  0
    2.9063   -2.6176   -0.9339 H   0  0  0  0  0  0  0  0  0  0  0  0
    4.6801   -1.3704   -2.1816 H   0  0  0  0  0  0  0  0  0  0  0  0
    4.0533    0.4766   -3.7282 H   0  0  0  0  0  0  0  0  0  0  0  0
    1.6481    1.0908   -4.0383 H   0  0  0  0  0  0  0  0  0  0  0  0
  1  2  2  0
  2  3  1  0
  2  4  1  0
  4  5  1  0
  5  6  1  0
  6  7  2  0
  7  8  1  0
  8  9  2  0
  8 10  1  0
 10 11  1  0
 11 12  2  0
 12 13  1  0
 13 14  2  0
 14 15  1  0
 15 16  2  0
  4 17  1  0
 17 18  1  0
 18 19  2  0
 18 20  1  0
 20 21  2  0
 21 22  1  0
 22 23  2  0
 23 24  1  0
 24 25  2  0
 25 26  1  0
 26 27  2  0
 16  6  1  0
 26 17  1  0
 16 11  1  0
 25 20  1  0
  3 28  1  0
  4 29  1  1
  5 30  1  0
  5 31  1  0
  7 32  1  0
 10 33  1  0
 12 34  1  0
 13 35  1  0
 14 36  1  0
 15 37  1  0
 17 38  1  0
 21 39  1  0
 22 40  1  0
 23 41  1  0
 24 42  1  0
M  CHG  1  17   1
M  END
>  <UniqueID>  (37) 
36

>  <SMILES>  (37) 
O=C(O)[C@H](Cc1cc(=O)[nH]c2ccccc12)[NH+]1C(=O)c2ccccc2C1=O

>  <Energy>  (37) 
79.57582315059933

>  <Genealogy>  (37) 
O=C(O)[C@H](Cc1cc(=O)[nH]c2ccccc12)[NH+]1C(=O)c2ccccc2C1=O (protonated)
O=C(O)[C@H](Cc1cc(=O)[nH]c2ccccc12)[NH+]1C(=O)c2ccccc2C1=O (3D coordinates assigned)
O=C(O)[C@H](Cc1cc(=O)[nH]c2ccccc12)[NH+]1C(=O)c2ccccc2C1=O (nonaromatic ring conformer: 79.57582315059933 kcal/mol)

$$$$
untitled_line_37
     RDKit          3D

 41 44  0  0  0  0  0  0  0  0999 V2000
   -0.5792    1.4491    1.6344 N   0  0  0  0  0  0  0  0  0  0  0  0
   -0.6199    1.1012    0.2503 C   0  0  0  0  0  0  0  0  0  0  0  0
   -1.1265    1.9084   -0.5752 O   0  0  0  0  0  0  0  0  0  0  0  0
   -0.0922   -0.2465   -0.2176 C   0  0  2  0  0  0  0  0  0  0  0  0
    0.7754   -0.1044   -1.4909 C   0  0  0  0  0  0  0  0  0  0  0  0
    2.0280    0.6796   -1.2188 C   0  0  0  0  0  0  0  0  0  0  0  0
    2.2283    2.0357   -1.4595 C   0  0  0  0  0  0  0  0  0  0  0  0
    3.4511    2.4166   -1.0244 N   0  0  0  0  0  0  0  0  0  0  0  0
    4.0193    1.3158   -0.5021 C   0  0  0  0  0  0  0  0  0  0  0  0
    5.2775    1.2138    0.0900 C   0  0  0  0  0  0  0  0  0  0  0  0
    5.6679   -0.0412    0.5923 C   0  0  0  0  0  0  0  0  0  0  0  0
    4.8008   -1.1524    0.4956 C   0  0  0  0  0  0  0  0  0  0  0  0
    3.5359   -1.0193   -0.1055 C   0  0  0  0  0  0  0  0  0  0  0  0
    3.1792    0.2362   -0.5983 C   0  0  0  0  0  0  0  0  0  0  0  0
   -1.1717   -1.2537   -0.4065 N   0  0  0  0  0  4  0  0  0  0  0  0
   -1.8699   -1.5158    0.8321 C   0  0  0  0  0  0  0  0  0  0  0  0
   -1.3161   -2.0172    1.8475 O   0  0  0  0  0  0  0  0  0  0  0  0
   -3.2821   -1.1754    0.7559 C   0  0  0  0  0  0  0  0  0  0  0  0
   -4.2947   -1.2510    1.7114 C   0  0  0  0  0  0  0  0  0  0  0  0
   -5.5892   -0.8526    1.3320 C   0  0  0  0  0  0  0  0  0  0  0  0
   -5.8391   -0.3967    0.0192 C   0  0  0  0  0  0  0  0  0  0  0  0
   -4.7959   -0.3359   -0.9224 C   0  0  0  0  0  0  0  0  0  0  0  0
   -3.5234   -0.7330   -0.5136 C   0  0  0  0  0  0  0  0  0  0  0  0
   -2.2638   -0.7962   -1.2393 C   0  0  0  0  0  0  0  0  0  0  0  0
   -2.1470   -0.5541   -2.4704 O   0  0  0  0  0  0  0  0  0  0  0  0
   -0.1832    0.7904    2.3409 H   0  0  0  0  0  0  0  0  0  0  0  0
   -0.9535    2.3690    1.9566 H   0  0  0  0  0  0  0  0  0  0  0  0
    0.5910   -0.6319    0.5743 H   0  0  0  0  0  0  0  0  0  0  0  0
    1.0655   -1.1113   -1.8604 H   0  0  0  0  0  0  0  0  0  0  0  0
    0.2063    0.3934   -2.3038 H   0  0  0  0  0  0  0  0  0  0  0  0
    1.5136    2.7079   -1.9162 H   0  0  0  0  0  0  0  0  0  0  0  0
    3.8610    3.3758   -1.0732 H   0  0  0  0  0  0  0  0  0  0  0  0
    5.9327    2.0721    0.1643 H   0  0  0  0  0  0  0  0  0  0  0  0
    6.6380   -0.1552    1.0582 H   0  0  0  0  0  0  0  0  0  0  0  0
    5.1107   -2.1121    0.8879 H   0  0  0  0  0  0  0  0  0  0  0  0
    2.8650   -1.8653   -0.1800 H   0  0  0  0  0  0  0  0  0  0  0  0
   -0.7948   -2.1564   -0.7798 H   0  0  0  0  0  0  0  0  0  0  0  0
   -4.0922   -1.6048    2.7138 H   0  0  0  0  0  0  0  0  0  0  0  0
   -6.3980   -0.8975    2.0496 H   0  0  0  0  0  0  0  0  0  0  0  0
   -6.8385   -0.0940   -0.2648 H   0  0  0  0  0  0  0  0  0  0  0  0
   -4.9764    0.0091   -1.9321 H   0  0  0  0  0  0  0  0  0  0  0  0
  1  2  1  0
  2  3  2  0
  2  4  1  0
  4  5  1  0
  5  6  1  0
  6  7  2  0
  7  8  1  0
  8  9  1  0
  9 10  2  0
 10 11  1  0
 11 12  2  0
 12 13  1  0
 13 14  2  0
  4 15  1  0
 15 16  1  0
 16 17  2  0
 16 18  1  0
 18 19  2  0
 19 20  1  0
 20 21  2  0
 21 22  1  0
 22 23  2  0
 23 24  1  0
 24 25  2  0
 14  6  1  0
 24 15  1  0
 14  9  1  0
 23 18  1  0
  1 26  1  0
  1 27  1  0
  4 28  1  1
  5 29  1  0
  5 30  1  0
  7 31  1  0
  8 32  1  0
 10 33  1  0
 11 34  1  0
 12 35  1  0
 13 36  1  0
 15 37  1  0
 19 38  1  0
 20 39  1  0
 21 40  1  0
 22 41  1  0
M  CHG  1  15   1
M  END
>  <UniqueID>  (38) 
37

>  <SMILES>  (38) 
NC(=O)[C@H](Cc1c[nH]c2ccccc12)[NH+]1C(=O)c2ccccc2C1=O

>  <Energy>  (38) 
103.71280641652321

>  <Genealogy>  (38) 
NC(=O)[C@H](Cc1c[nH]c2ccccc12)[NH+]1C(=O)c2ccccc2C1=O (protonated)
NC(=O)[C@H](Cc1c[nH]c2ccccc12)[NH+]1C(=O)c2ccccc2C1=O (3D coordinates assigned)
NC(=O)[C@H](Cc1c[nH]c2ccccc12)[NH+]1C(=O)c2ccccc2C1=O (nonaromatic ring conformer: 103.71280641652321 kcal/mol)

$$$$
untitled_line_38
     RDKit          3D

 31 33  0  0  0  0  0  0  0  0999 V2000
   -0.9179    2.7972    1.4808 O   0  0  0  0  0  0  0  0  0  0  0  0
   -1.1950    2.1522    0.4341 C   0  0  0  0  0  0  0  0  0  0  0  0
   -1.7001    2.8215   -0.6774 O   0  0  0  0  0  0  0  0  0  0  0  0
   -0.9455    0.6667    0.3768 C   0  0  2  0  0  0  0  0  0  0  0  0
    0.3002    0.4377   -0.4502 C   0  0  0  0  0  0  0  0  0  0  0  0
    0.4405    0.6432   -1.8225 C   0  0  0  0  0  0  0  0  0  0  0  0
    1.6997    0.3530   -2.2195 N   0  0  0  0  0  0  0  0  0  0  0  0
    2.3596   -0.0290   -1.1132 C   0  0  0  0  0  0  0  0  0  0  0  0
    3.6942   -0.4220   -1.0224 C   0  0  0  0  0  0  0  0  0  0  0  0
    4.1897   -0.7809    0.2438 C   0  0  0  0  0  0  0  0  0  0  0  0
    3.3503   -0.7385    1.3785 C   0  0  0  0  0  0  0  0  0  0  0  0
    2.0073   -0.3375    1.2579 C   0  0  0  0  0  0  0  0  0  0  0  0
    1.5419    0.0119   -0.0117 C   0  0  0  0  0  0  0  0  0  0  0  0
   -2.1135   -0.0605   -0.1862 N   0  0  0  0  0  4  0  0  0  0  0  0
   -3.2675    0.0448    0.6691 C   0  0  0  0  0  0  0  0  0  0  0  0
   -3.9003    1.1197    0.8495 O   0  0  0  0  0  0  0  0  0  0  0  0
   -3.6737   -1.2291    1.2468 C   0  0  0  0  0  0  0  0  0  0  0  0
   -2.8668   -2.1527    0.7671 C   0  0  0  0  0  0  0  0  0  0  0  0
   -1.9290   -1.4878   -0.1272 C   0  0  0  0  0  0  0  0  0  0  0  0
   -1.0837   -2.1070   -0.8276 O   0  0  0  0  0  0  0  0  0  0  0  0
   -1.8609    3.8212   -0.6531 H   0  0  0  0  0  0  0  0  0  0  0  0
   -0.7589    0.3084    1.4154 H   0  0  0  0  0  0  0  0  0  0  0  0
   -0.3362    0.9881   -2.4923 H   0  0  0  0  0  0  0  0  0  0  0  0
    2.0793    0.4179   -3.1901 H   0  0  0  0  0  0  0  0  0  0  0  0
    4.3303   -0.4499   -1.8976 H   0  0  0  0  0  0  0  0  0  0  0  0
    5.2213   -1.0908    0.3492 H   0  0  0  0  0  0  0  0  0  0  0  0
    3.7428   -1.0163    2.3480 H   0  0  0  0  0  0  0  0  0  0  0  0
    1.3655   -0.3044    2.1277 H   0  0  0  0  0  0  0  0  0  0  0  0
   -2.3544    0.2364   -1.1608 H   0  0  0  0  0  0  0  0  0  0  0  0
   -4.5000   -1.4021    1.9235 H   0  0  0  0  0  0  0  0  0  0  0  0
   -2.9193   -3.2114    0.9836 H   0  0  0  0  0  0  0  0  0  0  0  0
  1  2  2  0
  2  3  1  0
  2  4  1  0
  4  5  1  0
  5  6  2  0
  6  7  1  0
  7  8  1  0
  8  9  2  0
  9 10  1  0
 10 11  2  0
 11 12  1  0
 12 13  2  0
  4 14  1  0
 14 15  1  0
 15 16  2  0
 15 17  1  0
 17 18  2  0
 18 19  1  0
 19 20  2  0
 13  5  1  0
 19 14  1  0
 13  8  1  0
  3 21  1  0
  4 22  1  1
  6 23  1  0
  7 24  1  0
  9 25  1  0
 10 26  1  0
 11 27  1  0
 12 28  1  0
 14 29  1  0
 17 30  1  0
 18 31  1  0
M  CHG  1  14   1
M  END
>  <UniqueID>  (39) 
38

>  <SMILES>  (39) 
O=C(O)[C@H](c1c[nH]c2ccccc12)[NH+]1C(=O)C=CC1=O

>  <Energy>  (39) 
85.64652436385738

>  <Genealogy>  (39) 
O=C(O)[C@H](c1c[nH]c2ccccc12)[NH+]1C(=O)C=CC1=O (protonated)
O=C(O)[C@H](c1c[nH]c2ccccc12)[NH+]1C(=O)C=CC1=O (3D coordinates assigned)
O=C(O)[C@H](c1c[nH]c2ccccc12)[NH+]1C(=O)C=CC1=O (nonaromatic ring conformer: 85.64652436385738 kcal/mol)

$$$$
untitled_line_39
     RDKit          3D

 43 46  0  0  0  0  0  0  0  0999 V2000
   -1.8815    2.1919    0.1932 O   0  0  0  0  0  0  0  0  0  0  0  0
   -1.7721    1.3363   -0.7256 C   0  0  0  0  0  0  0  0  0  0  0  0
   -2.8526    1.0803   -1.5651 O   0  0  0  0  0  0  0  0  0  0  0  0
   -0.4665    0.6102   -0.9262 C   0  0  2  0  0  0  0  0  0  0  0  0
    0.1984    1.0548   -2.2446 C   0  0  0  0  0  0  0  0  0  0  0  0
    0.5841    2.5071   -2.2094 C   0  0  0  0  0  0  0  0  0  0  0  0
    1.7032    3.0471   -1.5824 C   0  0  0  0  0  0  0  0  0  0  0  0
    1.6969    4.3957   -1.6836 N   0  0  0  0  0  0  0  0  0  0  0  0
    0.5786    4.7125   -2.3591 C   0  0  0  0  0  0  0  0  0  0  0  0
    0.1271    5.9887   -2.6926 C   0  0  0  0  0  0  0  0  0  0  0  0
   -1.0894    6.0942   -3.3913 C   0  0  0  0  0  0  0  0  0  0  0  0
   -1.8201    4.9353   -3.7349 C   0  0  0  0  0  0  0  0  0  0  0  0
   -1.3409    3.6601   -3.3842 C   0  0  0  0  0  0  0  0  0  0  0  0
   -0.1300    3.5866   -2.6942 C   0  0  0  0  0  0  0  0  0  0  0  0
   -0.6800   -0.9233   -0.9263 C   0  0  0  0  0  0  0  0  0  0  0  0
   -1.2343   -1.4280    0.3511 N   0  0  0  0  0  4  0  0  0  0  0  0
   -0.2153   -1.5591    1.3696 C   0  0  0  0  0  0  0  0  0  0  0  0
    0.3538   -0.5764    1.9158 O   0  0  0  0  0  0  0  0  0  0  0  0
    0.0130   -2.9433    1.7539 C   0  0  0  0  0  0  0  0  0  0  0  0
    0.8963   -3.5041    2.6759 C   0  0  0  0  0  0  0  0  0  0  0  0
    0.8693   -4.8998    2.8491 C   0  0  0  0  0  0  0  0  0  0  0  0
   -0.0352   -5.6926    2.1095 C   0  0  0  0  0  0  0  0  0  0  0  0
   -0.9184   -5.0945    1.1925 C   0  0  0  0  0  0  0  0  0  0  0  0
   -0.8620   -3.7095    1.0403 C   0  0  0  0  0  0  0  0  0  0  0  0
   -1.6386   -2.8073    0.2048 C   0  0  0  0  0  0  0  0  0  0  0  0
   -2.5890   -3.1749   -0.5376 O   0  0  0  0  0  0  0  0  0  0  0  0
   -3.7304    1.5716   -1.4463 H   0  0  0  0  0  0  0  0  0  0  0  0
    0.2258    0.8718   -0.0979 H   0  0  0  0  0  0  0  0  0  0  0  0
    1.1221    0.4594   -2.4132 H   0  0  0  0  0  0  0  0  0  0  0  0
   -0.4779    0.8603   -3.1049 H   0  0  0  0  0  0  0  0  0  0  0  0
    2.4712    2.4836   -1.0688 H   0  0  0  0  0  0  0  0  0  0  0  0
    2.4104    5.0545   -1.2998 H   0  0  0  0  0  0  0  0  0  0  0  0
    0.6916    6.8712   -2.4207 H   0  0  0  0  0  0  0  0  0  0  0  0
   -1.4687    7.0701   -3.6652 H   0  0  0  0  0  0  0  0  0  0  0  0
   -2.7556    5.0288   -4.2709 H   0  0  0  0  0  0  0  0  0  0  0  0
   -1.8982    2.7704   -3.6447 H   0  0  0  0  0  0  0  0  0  0  0  0
    0.2870   -1.4320   -1.1507 H   0  0  0  0  0  0  0  0  0  0  0  0
   -1.3709   -1.1737   -1.7643 H   0  0  0  0  0  0  0  0  0  0  0  0
   -2.0409   -0.8641    0.7052 H   0  0  0  0  0  0  0  0  0  0  0  0
    1.5810   -2.8859    3.2416 H   0  0  0  0  0  0  0  0  0  0  0  0
    1.5430   -5.3676    3.5551 H   0  0  0  0  0  0  0  0  0  0  0  0
   -0.0516   -6.7654    2.2510 H   0  0  0  0  0  0  0  0  0  0  0  0
   -1.6200   -5.6914    0.6245 H   0  0  0  0  0  0  0  0  0  0  0  0
  1  2  2  0
  2  3  1  0
  2  4  1  0
  4  5  1  0
  5  6  1  0
  6  7  2  0
  7  8  1  0
  8  9  1  0
  9 10  2  0
 10 11  1  0
 11 12  2  0
 12 13  1  0
 13 14  2  0
  4 15  1  0
 15 16  1  0
 16 17  1  0
 17 18  2  0
 17 19  1  0
 19 20  2  0
 20 21  1  0
 21 22  2  0
 22 23  1  0
 23 24  2  0
 24 25  1  0
 25 26  2  0
 14  6  1  0
 25 16  1  0
 14  9  1  0
 24 19  1  0
  3 27  1  0
  4 28  1  1
  5 29  1  0
  5 30  1  0
  7 31  1  0
  8 32  1  0
 10 33  1  0
 11 34  1  0
 12 35  1  0
 13 36  1  0
 15 37  1  0
 15 38  1  0
 16 39  1  0
 20 40  1  0
 21 41  1  0
 22 42  1  0
 23 43  1  0
M  CHG  1  16   1
M  END
>  <UniqueID>  (40) 
39

>  <SMILES>  (40) 
O=C(O)[C@H](Cc1c[nH]c2ccccc12)C[NH+]1C(=O)c2ccccc2C1=O

>  <Energy>  (40) 
102.24816000810463

>  <Genealogy>  (40) 
O=C(O)[C@H](Cc1c[nH]c2ccccc12)C[NH+]1C(=O)c2ccccc2C1=O (protonated)
O=C(O)[C@H](Cc1c[nH]c2ccccc12)C[NH+]1C(=O)c2ccccc2C1=O (3D coordinates assigned)
O=C(O)[C@H](Cc1c[nH]c2ccccc12)C[NH+]1C(=O)c2ccccc2C1=O (nonaromatic ring conformer: 102.24816000810463 kcal/mol)

$$$$
untitled_line_40
     RDKit          3D

 45 48  0  0  0  0  0  0  0  0999 V2000
    2.1573   -0.9899   -0.6058 H   0  0  0  0  0  0  0  0  0  0  0  0
    1.1512   -0.8836   -0.5569 O   0  0  0  0  0  0  0  0  0  0  0  0
    0.5762    0.1086    0.2309 C   0  0  0  0  0  0  0  0  0  0  0  0
    1.3146    0.8785    0.9034 O   0  0  0  0  0  0  0  0  0  0  0  0
   -0.9345    0.2262    0.3018 C   0  0  2  0  0  0  0  0  0  0  0  0
   -1.3413   -0.2699   -0.6101 H   0  0  0  0  0  0  0  0  0  0  0  0
   -1.3932    1.7026    0.2294 C   0  0  0  0  0  0  0  0  0  0  0  0
   -2.4938    1.7592    0.3714 H   0  0  0  0  0  0  0  0  0  0  0  0
   -0.9252    2.2981    1.0422 H   0  0  0  0  0  0  0  0  0  0  0  0
   -1.0542    2.3233   -1.0961 C   0  0  0  0  0  0  0  0  0  0  0  0
    0.0512    3.1188   -1.3831 C   0  0  0  0  0  0  0  0  0  0  0  0
    0.8054    3.4313   -0.6726 H   0  0  0  0  0  0  0  0  0  0  0  0
    0.0695    3.4452   -2.6957 N   0  0  0  0  0  0  0  0  0  0  0  0
    0.7852    4.0273   -3.1850 H   0  0  0  0  0  0  0  0  0  0  0  0
   -1.0084    2.8547   -3.2407 C   0  0  0  0  0  0  0  0  0  0  0  0
   -1.4056    2.8881   -4.5767 C   0  0  0  0  0  0  0  0  0  0  0  0
   -0.8387    3.4391   -5.3159 H   0  0  0  0  0  0  0  0  0  0  0  0
   -2.5667    2.1788   -4.9353 C   0  0  0  0  0  0  0  0  0  0  0  0
   -2.9029    2.1836   -5.9640 H   0  0  0  0  0  0  0  0  0  0  0  0
   -3.2945    1.4580   -3.9623 C   0  0  0  0  0  0  0  0  0  0  0  0
   -4.1847    0.9141   -4.2503 H   0  0  0  0  0  0  0  0  0  0  0  0
   -2.8689    1.4408   -2.6216 C   0  0  0  0  0  0  0  0  0  0  0  0
   -3.4196    0.8883   -1.8714 H   0  0  0  0  0  0  0  0  0  0  0  0
   -1.7168    2.1570   -2.2962 C   0  0  0  0  0  0  0  0  0  0  0  0
   -1.5103   -0.4640    1.4895 N   0  0  1  0  0  4  0  0  0  0  0  0
   -2.5548   -0.3640    1.4859 H   0  0  0  0  0  0  0  0  0  0  0  0
   -1.2299   -1.8722    1.4590 C   0  0  0  0  0  0  0  0  0  0  0  0
   -1.7458   -2.6277    0.5895 O   0  0  0  0  0  0  0  0  0  0  0  0
   -0.3508   -2.3762    2.5109 C   0  0  0  0  0  0  0  0  0  0  0  0
   -0.1971   -3.6827    2.7785 C   0  0  0  0  0  0  0  0  0  0  0  0
   -0.7671   -4.4040    2.2047 H   0  0  0  0  0  0  0  0  0  0  0  0
    0.6553   -4.2123    3.8633 C   0  0  0  0  0  0  0  0  0  0  0  0
    0.1677   -5.2527    4.6692 C   0  0  0  0  0  0  0  0  0  0  0  0
   -0.8344   -5.6365    4.5209 H   0  0  0  0  0  0  0  0  0  0  0  0
    0.9650   -5.7955    5.6817 C   0  0  0  0  0  0  0  0  0  0  0  0
    0.5743   -6.5893    6.3054 H   0  0  0  0  0  0  0  0  0  0  0  0
    2.2630   -5.3169    5.8848 C   0  0  0  0  0  0  0  0  0  0  0  0
    3.3517   -6.0617    7.2659 Br  0  0  0  0  0  0  0  0  0  0  0  0
    2.7673   -4.3011    5.0670 C   0  0  0  0  0  0  0  0  0  0  0  0
    3.7779   -3.9402    5.2090 H   0  0  0  0  0  0  0  0  0  0  0  0
    1.9722   -3.7562    4.0541 C   0  0  0  0  0  0  0  0  0  0  0  0
    2.3931   -2.9965    3.4079 H   0  0  0  0  0  0  0  0  0  0  0  0
    0.2983   -1.0480    3.5104 S   0  0  0  0  0  0  0  0  0  0  0  0
   -0.9487   -0.0021    2.7468 C   0  0  0  0  0  0  0  0  0  0  0  0
   -1.6529    0.9470    3.5710 S   0  0  0  0  0  0  0  0  0  0  0  0
  1  2  1  0
  2  3  1  0
  3  4  2  0
  3  5  1  0
  5  6  1  6
  5  7  1  0
  7  8  1  0
  7  9  1  0
  7 10  1  0
 10 11  2  0
 11 12  1  0
 11 13  1  0
 13 14  1  0
 13 15  1  0
 15 16  2  0
 16 17  1  0
 16 18  1  0
 18 19  1  0
 18 20  2  0
 20 21  1  0
 20 22  1  0
 22 23  1  0
 22 24  2  0
  5 25  1  0
 25 26  1  1
 25 27  1  0
 27 28  2  0
 27 29  1  0
 29 30  2  0
 30 31  1  0
 30 32  1  0
 32 33  2  0
 33 34  1  0
 33 35  1  0
 35 36  1  0
 35 37  2  0
 37 38  1  0
 37 39  1  0
 39 40  1  0
 39 41  2  0
 41 42  1  0
 29 43  1  0
 43 44  1  0
 44 45  2  0
 24 10  1  0
 44 25  1  0
 24 15  1  0
 41 32  1  0
M  CHG  1  25   1
M  END
>  <UniqueID>  (41) 
40

>  <SMILES>  (41) 
O=C(O)[C@H](Cc1c[nH]c2ccccc12)[N@H+]1C(=O)/C(=C/c2ccc(Br)cc2)SC1=S

>  <Energy>  (41) 
105.29938535540529

>  <Genealogy>  (41) 
O=C(O)[C@H](Cc1c[nH]c2ccccc12)[NH+]1C(=O)/C(=C/c2ccc(Br)cc2)SC1=S (protonated)
O=C(O)[C@H](Cc1c[nH]c2ccccc12)[N@H+]1C(=O)/C(=C/c2ccc(Br)cc2)SC1=S (chirality)
O=C(O)[C@H](Cc1c[nH]c2ccccc12)[N@H+]1C(=O)/C(=C/c2ccc(Br)cc2)SC1=S (cis-trans isomerization)
O=C(O)[C@H](Cc1c[nH]c2ccccc12)[N@H+]1C(=O)/C(=C/c2ccc(Br)cc2)SC1=S (3D coordinates assigned)
O=C(O)[C@H](Cc1c[nH]c2ccccc12)[N@H+]1C(=O)/C(=C/c2ccc(Br)cc2)SC1=S (nonaromatic ring conformer: 105.29938535540529 kcal/mol)

$$$$
untitled_line_41
     RDKit          3D

 28 29  0  0  0  0  0  0  0  0999 V2000
   -1.9323   -1.2231   -0.0770 N   0  0  0  0  0  4  0  0  0  0  0  0
   -2.2154    0.2010    0.1519 C   0  0  2  0  0  0  0  0  0  0  0  0
   -1.1131    0.8681    0.9989 C   0  0  0  0  0  0  0  0  0  0  0  0
    0.2018    0.9032    0.2742 C   0  0  0  0  0  0  0  0  0  0  0  0
    0.5737    1.8074   -0.7162 C   0  0  0  0  0  0  0  0  0  0  0  0
    1.8037    1.5075   -1.1919 N   0  0  0  0  0  0  0  0  0  0  0  0
    2.2073    0.4167   -0.5177 C   0  0  0  0  0  0  0  0  0  0  0  0
    3.4076   -0.2755   -0.6727 C   0  0  0  0  0  0  0  0  0  0  0  0
    3.6199   -1.4116    0.1293 C   0  0  0  0  0  0  0  0  0  0  0  0
    2.6378   -1.8276    1.0554 C   0  0  0  0  0  0  0  0  0  0  0  0
    1.4349   -1.1105    1.1896 C   0  0  0  0  0  0  0  0  0  0  0  0
    1.2547    0.0149    0.3841 C   0  0  0  0  0  0  0  0  0  0  0  0
   -3.5493    0.3688    0.8373 C   0  0  0  0  0  0  0  0  0  0  0  0
   -3.8363   -0.3325    1.8437 O   0  0  0  0  0  0  0  0  0  0  0  0
   -4.4578    1.3269    0.3956 O   0  0  0  0  0  0  0  0  0  0  0  0
   -2.7335   -1.6674   -0.5823 H   0  0  0  0  0  0  0  0  0  0  0  0
   -1.7793   -1.7227    0.8294 H   0  0  0  0  0  0  0  0  0  0  0  0
   -1.0812   -1.3276   -0.6750 H   0  0  0  0  0  0  0  0  0  0  0  0
   -2.2635    0.7145   -0.8351 H   0  0  0  0  0  0  0  0  0  0  0  0
   -1.4082    1.9156    1.2288 H   0  0  0  0  0  0  0  0  0  0  0  0
   -0.9987    0.3384    1.9691 H   0  0  0  0  0  0  0  0  0  0  0  0
   -0.0282    2.6321   -1.0752 H   0  0  0  0  0  0  0  0  0  0  0  0
    2.3251    2.0154   -1.9407 H   0  0  0  0  0  0  0  0  0  0  0  0
    4.1519    0.0478   -1.3889 H   0  0  0  0  0  0  0  0  0  0  0  0
    4.5407   -1.9721    0.0339 H   0  0  0  0  0  0  0  0  0  0  0  0
    2.8108   -2.7049    1.6649 H   0  0  0  0  0  0  0  0  0  0  0  0
    0.6782   -1.4282    1.8944 H   0  0  0  0  0  0  0  0  0  0  0  0
   -4.2510    1.9256   -0.3948 H   0  0  0  0  0  0  0  0  0  0  0  0
  1  2  1  0
  2  3  1  0
  3  4  1  0
  4  5  2  0
  5  6  1  0
  6  7  1  0
  7  8  2  0
  8  9  1  0
  9 10  2  0
 10 11  1  0
 11 12  2  0
  2 13  1  0
 13 14  2  0
 13 15  1  0
 12  4  1  0
 12  7  1  0
  1 16  1  0
  1 17  1  0
  1 18  1  0
  2 19  1  6
  3 20  1  0
  3 21  1  0
  5 22  1  0
  6 23  1  0
  8 24  1  0
  9 25  1  0
 10 26  1  0
 11 27  1  0
 15 28  1  0
M  CHG  1   1   1
M  END
>  <UniqueID>  (42) 
41

>  <SMILES>  (42) 
[NH3+][C@H](Cc1c[nH]c2ccccc12)C(=O)O

>  <Energy>  (42) 
57.238905694195104

>  <Genealogy>  (42) 
[NH3+][C@H](Cc1c[nH]c2ccccc12)C(=O)O (protonated)
[NH3+][C@H](Cc1c[nH]c2ccccc12)C(=O)O (3D coordinates assigned)
[NH3+][C@H](Cc1c[nH]c2ccccc12)C(=O)O (optimized conformer: 57.238905694195104 kcal/mol)

$$$$
untitled_line_42
     RDKit          3D

 39 40  0  0  0  0  0  0  0  0999 V2000
    4.8006    1.7162    0.9223 C   0  0  0  0  0  0  0  0  0  0  0  0
    4.0958    0.3931    0.5934 C   0  0  2  0  0  0  0  0  0  0  0  0
    4.8921   -0.4411   -0.4243 C   0  0  0  0  0  0  0  0  0  0  0  0
    6.4394   -1.0733    0.3016 S   0  0  0  0  0  0  0  0  0  0  0  0
    2.7112    0.6666    0.0619 C   0  0  0  0  0  0  0  0  0  0  0  0
    2.5703    1.3515   -0.9889 O   0  0  0  0  0  0  0  0  0  0  0  0
    1.5585    0.1416    0.7383 N   0  0  0  0  0  0  0  0  0  0  0  0
    0.1984    0.3476    0.2304 C   0  0  2  0  0  0  0  0  0  0  0  0
   -0.8361    0.0066    1.3190 C   0  0  0  0  0  0  0  0  0  0  0  0
   -2.2285    0.3843    0.8984 C   0  0  0  0  0  0  0  0  0  0  0  0
   -2.7916    1.6556    0.9588 C   0  0  0  0  0  0  0  0  0  0  0  0
   -4.0331    1.6485    0.4224 N   0  0  0  0  0  0  0  0  0  0  0  0
   -4.2541    0.3871    0.0134 C   0  0  0  0  0  0  0  0  0  0  0  0
   -5.3918   -0.1068   -0.6234 C   0  0  0  0  0  0  0  0  0  0  0  0
   -5.4040   -1.4657   -0.9876 C   0  0  0  0  0  0  0  0  0  0  0  0
   -4.2905   -2.2902   -0.7129 C   0  0  0  0  0  0  0  0  0  0  0  0
   -3.1550   -1.7642   -0.0702 C   0  0  0  0  0  0  0  0  0  0  0  0
   -3.1735   -0.4141    0.2825 C   0  0  0  0  0  0  0  0  0  0  0  0
   -0.0196   -0.4943   -0.9966 C   0  0  0  0  0  0  0  0  0  0  0  0
    0.3358   -1.7039   -1.0101 O   0  0  0  0  0  0  0  0  0  0  0  0
   -0.6536    0.0544   -2.1068 O   0  0  0  0  0  0  0  0  0  0  0  0
    5.7845    1.5250    1.3995 H   0  0  0  0  0  0  0  0  0  0  0  0
    4.1860    2.3075    1.6346 H   0  0  0  0  0  0  0  0  0  0  0  0
    4.9609    2.3186    0.0022 H   0  0  0  0  0  0  0  0  0  0  0  0
    4.0118   -0.1927    1.5351 H   0  0  0  0  0  0  0  0  0  0  0  0
    5.1317    0.1660   -1.3241 H   0  0  0  0  0  0  0  0  0  0  0  0
    4.2865   -1.3165   -0.7454 H   0  0  0  0  0  0  0  0  0  0  0  0
    6.8060   -1.7291   -0.8890 H   0  0  0  0  0  0  0  0  0  0  0  0
    1.7004   -0.4197    1.6090 H   0  0  0  0  0  0  0  0  0  0  0  0
    0.0788    1.4218   -0.0364 H   0  0  0  0  0  0  0  0  0  0  0  0
   -0.7932   -1.0758    1.5684 H   0  0  0  0  0  0  0  0  0  0  0  0
   -0.5871    0.5684    2.2455 H   0  0  0  0  0  0  0  0  0  0  0  0
   -2.3122    2.5390    1.3602 H   0  0  0  0  0  0  0  0  0  0  0  0
   -4.6792    2.4637    0.3313 H   0  0  0  0  0  0  0  0  0  0  0  0
   -6.2378    0.5341   -0.8349 H   0  0  0  0  0  0  0  0  0  0  0  0
   -6.2713   -1.8811   -1.4839 H   0  0  0  0  0  0  0  0  0  0  0  0
   -4.3100   -3.3334   -1.0000 H   0  0  0  0  0  0  0  0  0  0  0  0
   -2.2987   -2.3913    0.1393 H   0  0  0  0  0  0  0  0  0  0  0  0
   -0.8279   -0.5038   -2.9338 H   0  0  0  0  0  0  0  0  0  0  0  0
  1  2  1  0
  2  3  1  0
  3  4  1  0
  2  5  1  0
  5  6  2  0
  5  7  1  0
  7  8  1  0
  8  9  1  0
  9 10  1  0
 10 11  2  0
 11 12  1  0
 12 13  1  0
 13 14  2  0
 14 15  1  0
 15 16  2  0
 16 17  1  0
 17 18  2  0
  8 19  1  0
 19 20  2  0
 19 21  1  0
 18 10  1  0
 18 13  1  0
  1 22  1  0
  1 23  1  0
  1 24  1  0
  2 25  1  1
  3 26  1  0
  3 27  1  0
  4 28  1  0
  7 29  1  0
  8 30  1  6
  9 31  1  0
  9 32  1  0
 11 33  1  0
 12 34  1  0
 14 35  1  0
 15 36  1  0
 16 37  1  0
 17 38  1  0
 21 39  1  0
M  END
>  <UniqueID>  (43) 
42

>  <SMILES>  (43) 
C[C@H](CS)C(=O)N[C@H](Cc1c[nH]c2ccccc12)C(=O)O

>  <Energy>  (43) 
60.96635283207845

>  <Genealogy>  (43) 
C[C@H](CS)C(=O)N[C@H](Cc1c[nH]c2ccccc12)C(=O)O (3D coordinates assigned)
C[C@H](CS)C(=O)N[C@H](Cc1c[nH]c2ccccc12)C(=O)O (optimized conformer: 60.96635283207845 kcal/mol)

$$$$
untitled_line_43
     RDKit          3D

 57 62  0  0  0  0  0  0  0  0999 V2000
    1.1028   -1.6580    1.8458 H   0  0  0  0  0  0  0  0  0  0  0  0
    1.3945   -0.8316    1.3379 O   0  0  0  0  0  0  0  0  0  0  0  0
    1.7699   -0.9112   -0.0006 C   0  0  0  0  0  0  0  0  0  0  0  0
    1.7341   -2.0226   -0.5935 O   0  0  0  0  0  0  0  0  0  0  0  0
    2.1847    0.3358   -0.7589 C   0  0  2  0  0  0  0  0  0  0  0  0
    2.7431    0.0028   -1.6654 H   0  0  0  0  0  0  0  0  0  0  0  0
    3.1792    1.1865    0.0670 C   0  0  0  0  0  0  0  0  0  0  0  0
    3.3925    2.1376   -0.4663 H   0  0  0  0  0  0  0  0  0  0  0  0
    2.7470    1.4513    1.0549 H   0  0  0  0  0  0  0  0  0  0  0  0
    4.4783    0.4626    0.2805 C   0  0  0  0  0  0  0  0  0  0  0  0
    4.8512   -0.2591    1.4104 C   0  0  0  0  0  0  0  0  0  0  0  0
    4.2640   -0.3661    2.3131 H   0  0  0  0  0  0  0  0  0  0  0  0
    6.0612   -0.8346    1.2244 N   0  0  0  0  0  0  0  0  0  0  0  0
    6.5790   -1.4346    1.9043 H   0  0  0  0  0  0  0  0  0  0  0  0
    6.4496   -0.4913   -0.0159 C   0  0  0  0  0  0  0  0  0  0  0  0
    7.6256   -0.8621   -0.6663 C   0  0  0  0  0  0  0  0  0  0  0  0
    8.3624   -1.4868   -0.1784 H   0  0  0  0  0  0  0  0  0  0  0  0
    7.8232   -0.4010   -1.9807 C   0  0  0  0  0  0  0  0  0  0  0  0
    8.7250   -0.6707   -2.5147 H   0  0  0  0  0  0  0  0  0  0  0  0
    6.8507    0.4084   -2.6091 C   0  0  0  0  0  0  0  0  0  0  0  0
    7.0123    0.7548   -3.6214 H   0  0  0  0  0  0  0  0  0  0  0  0
    5.6724    0.7656   -1.9286 C   0  0  0  0  0  0  0  0  0  0  0  0
    4.9215    1.3825   -2.4048 H   0  0  0  0  0  0  0  0  0  0  0  0
    5.5074    0.2969   -0.6253 C   0  0  0  0  0  0  0  0  0  0  0  0
    1.0187    1.1432   -1.2175 N   0  0  2  0  0  4  0  0  0  0  0  0
    1.3454    2.0410   -1.6508 H   0  0  0  0  0  0  0  0  0  0  0  0
    0.1028    1.4759   -0.1607 C   0  0  0  0  0  0  0  0  0  0  0  0
    0.3888    2.3334    0.7193 O   0  0  0  0  0  0  0  0  0  0  0  0
   -1.1969    0.8153   -0.2111 C   0  0  0  0  0  0  0  0  0  0  0  0
   -2.1916    1.0586    0.6513 C   0  0  0  0  0  0  0  0  0  0  0  0
   -2.0638    1.8004    1.4298 H   0  0  0  0  0  0  0  0  0  0  0  0
   -3.5012    0.3680    0.5593 C   0  0  0  0  0  0  0  0  0  0  0  0
   -4.6212    1.0519    0.0284 C   0  0  0  0  0  0  0  0  0  0  0  0
   -4.5175    2.3932   -0.4100 C   0  0  0  0  0  0  0  0  0  0  0  0
   -3.5855    2.9397   -0.3504 H   0  0  0  0  0  0  0  0  0  0  0  0
   -5.6207    3.0601   -0.9390 C   0  0  0  0  0  0  0  0  0  0  0  0
   -5.5248    4.0866   -1.2693 H   0  0  0  0  0  0  0  0  0  0  0  0
   -6.8447    2.4099   -1.0443 C   0  0  0  0  0  0  0  0  0  0  0  0
   -7.6987    2.9324   -1.4560 H   0  0  0  0  0  0  0  0  0  0  0  0
   -6.9742    1.0874   -0.6236 C   0  0  0  0  0  0  0  0  0  0  0  0
   -7.9467    0.6275   -0.7290 H   0  0  0  0  0  0  0  0  0  0  0  0
   -5.8721    0.3862   -0.0838 C   0  0  0  0  0  0  0  0  0  0  0  0
   -5.9987   -0.9577    0.3370 C   0  0  0  0  0  0  0  0  0  0  0  0
   -7.5599   -1.7913    0.1862 Cl  0  0  0  0  0  0  0  0  0  0  0  0
   -4.8846   -1.6376    0.8810 C   0  0  0  0  0  0  0  0  0  0  0  0
   -4.9904   -2.9783    1.3153 C   0  0  0  0  0  0  0  0  0  0  0  0
   -5.9166   -3.5306    1.2413 H   0  0  0  0  0  0  0  0  0  0  0  0
   -3.8935   -3.6423    1.8624 C   0  0  0  0  0  0  0  0  0  0  0  0
   -3.9916   -4.6692    2.1905 H   0  0  0  0  0  0  0  0  0  0  0  0
   -2.6745   -2.9877    1.9932 C   0  0  0  0  0  0  0  0  0  0  0  0
   -1.8271   -3.5055    2.4242 H   0  0  0  0  0  0  0  0  0  0  0  0
   -2.5418   -1.6664    1.5727 C   0  0  0  0  0  0  0  0  0  0  0  0
   -1.5762   -1.1972    1.7037 H   0  0  0  0  0  0  0  0  0  0  0  0
   -3.6346   -0.9718    1.0014 C   0  0  0  0  0  0  0  0  0  0  0  0
   -1.3232   -0.3143   -1.5849 S   0  0  0  0  0  0  0  0  0  0  0  0
    0.2209    0.3957   -2.1711 C   0  0  0  0  0  0  0  0  0  0  0  0
    0.4641    0.4885   -3.5880 S   0  0  0  0  0  0  0  0  0  0  0  0
  1  2  1  0
  2  3  1  0
  3  4  2  0
  3  5  1  0
  5  6  1  6
  5  7  1  0
  7  8  1  0
  7  9  1  0
  7 10  1  0
 10 11  2  0
 11 12  1  0
 11 13  1  0
 13 14  1  0
 13 15  1  0
 15 16  2  0
 16 17  1  0
 16 18  1  0
 18 19  1  0
 18 20  2  0
 20 21  1  0
 20 22  1  0
 22 23  1  0
 22 24  2  0
  5 25  1  0
 25 26  1  6
 25 27  1  0
 27 28  2  0
 27 29  1  0
 29 30  2  0
 30 31  1  0
 30 32  1  0
 32 33  1  0
 33 34  2  0
 34 35  1  0
 34 36  1  0
 36 37  1  0
 36 38  2  0
 38 39  1  0
 38 40  1  0
 40 41  1  0
 40 42  2  0
 42 43  1  0
 43 44  1  0
 43 45  2  0
 45 46  1  0
 46 47  1  0
 46 48  2  0
 48 49  1  0
 48 50  1  0
 50 51  1  0
 50 52  2  0
 52 53  1  0
 52 54  1  0
 29 55  1  0
 55 56  1  0
 56 57  2  0
 24 10  1  0
 56 25  1  0
 24 15  1  0
 54 32  2  0
 42 33  1  0
 54 45  1  0
M  CHG  1  25   1
M  END
>  <UniqueID>  (44) 
43

>  <SMILES>  (44) 
O=C(O)[C@H](Cc1c[nH]c2ccccc12)[N@@H+]1C(=O)/C(=C/c2c3ccccc3c(Cl)c3ccccc23)SC1=S

>  <Energy>  (44) 
137.99565616484193

>  <Genealogy>  (44) 
O=C(O)[C@H](Cc1c[nH]c2ccccc12)[NH+]1C(=O)/C(=C/c2c3ccccc3c(Cl)c3ccccc23)SC1=S (protonated)
O=C(O)[C@H](Cc1c[nH]c2ccccc12)[N@@H+]1C(=O)/C(=C/c2c3ccccc3c(Cl)c3ccccc23)SC1=S (chirality)
O=C(O)[C@H](Cc1c[nH]c2ccccc12)[N@@H+]1C(=O)/C(=C/c2c3ccccc3c(Cl)c3ccccc23)SC1=S (cis-trans isomerization)
O=C(O)[C@H](Cc1c[nH]c2ccccc12)[N@@H+]1C(=O)/C(=C/c2c3ccccc3c(Cl)c3ccccc23)SC1=S (3D coordinates assigned)
O=C(O)[C@H](Cc1c[nH]c2ccccc12)[N@@H+]1C(=O)/C(=C/c2c3ccccc3c(Cl)c3ccccc23)SC1=S (nonaromatic ring conformer: 137.99565616484193 kcal/mol)

$$$$
untitled_line_44
     RDKit          3D

 45 48  0  0  0  0  0  0  0  0999 V2000
   -1.6353    4.5170    1.3654 C   0  0  0  0  0  0  0  0  0  0  0  0
   -1.4510    3.1280    1.1249 O   0  0  0  0  0  0  0  0  0  0  0  0
   -2.0322    2.4665    0.0380 C   0  0  0  0  0  0  0  0  0  0  0  0
   -2.7975    3.0899   -0.7483 O   0  0  0  0  0  0  0  0  0  0  0  0
   -1.7284    1.0031   -0.2170 C   0  0  2  0  0  0  0  0  0  0  0  0
   -1.8086    0.1981    1.1041 C   0  0  0  0  0  0  0  0  0  0  0  0
   -1.7382   -1.2838    0.8682 C   0  0  0  0  0  0  0  0  0  0  0  0
   -2.7495   -2.0845    0.3460 C   0  0  0  0  0  0  0  0  0  0  0  0
   -2.3214   -3.3604    0.2145 N   0  0  0  0  0  0  0  0  0  0  0  0
   -1.0467   -3.3709    0.6417 C   0  0  0  0  0  0  0  0  0  0  0  0
   -0.1794   -4.4617    0.6832 C   0  0  0  0  0  0  0  0  0  0  0  0
    1.1273   -4.2455    1.1573 C   0  0  0  0  0  0  0  0  0  0  0  0
    1.5339   -2.9584    1.5725 C   0  0  0  0  0  0  0  0  0  0  0  0
    0.6376   -1.8756    1.5189 C   0  0  0  0  0  0  0  0  0  0  0  0
   -0.6528   -2.1209    1.0467 C   0  0  0  0  0  0  0  0  0  0  0  0
   -0.4382    0.8007   -0.9468 N   0  0  0  0  0  4  0  0  0  0  0  0
    0.7546    1.3713   -0.2567 C   0  0  0  0  0  0  0  0  0  0  0  0
    1.1972    2.5009   -1.1006 C   0  0  0  0  0  0  0  0  0  0  0  0
    2.1848    3.4484   -0.8263 C   0  0  0  0  0  0  0  0  0  0  0  0
    2.4462    4.4388   -1.7872 C   0  0  0  0  0  0  0  0  0  0  0  0
    1.7255    4.4586   -2.9971 C   0  0  0  0  0  0  0  0  0  0  0  0
    0.7420    3.4881   -3.2476 C   0  0  0  0  0  0  0  0  0  0  0  0
    0.4992    2.5203   -2.2709 C   0  0  0  0  0  0  0  0  0  0  0  0
   -0.4700    1.4049   -2.3097 C   0  0  0  0  0  0  0  0  0  0  0  0
   -2.7117    4.7337    1.5332 H   0  0  0  0  0  0  0  0  0  0  0  0
   -1.2615    5.1045    0.5004 H   0  0  0  0  0  0  0  0  0  0  0  0
   -1.0642    4.8083    2.2707 H   0  0  0  0  0  0  0  0  0  0  0  0
   -2.5533    0.6110   -0.8577 H   0  0  0  0  0  0  0  0  0  0  0  0
   -2.7802    0.4152    1.5997 H   0  0  0  0  0  0  0  0  0  0  0  0
   -1.0178    0.5054    1.8176 H   0  0  0  0  0  0  0  0  0  0  0  0
   -3.7400   -1.7480    0.0680 H   0  0  0  0  0  0  0  0  0  0  0  0
   -2.8701   -4.1685   -0.1547 H   0  0  0  0  0  0  0  0  0  0  0  0
   -0.4991   -5.4437    0.3595 H   0  0  0  0  0  0  0  0  0  0  0  0
    1.8256   -5.0709    1.2030 H   0  0  0  0  0  0  0  0  0  0  0  0
    2.5419   -2.8037    1.9347 H   0  0  0  0  0  0  0  0  0  0  0  0
    0.9459   -0.8889    1.8367 H   0  0  0  0  0  0  0  0  0  0  0  0
   -0.2874   -0.2287   -1.0691 H   0  0  0  0  0  0  0  0  0  0  0  0
    1.5731    0.6184   -0.2118 H   0  0  0  0  0  0  0  0  0  0  0  0
    0.5534    1.7215    0.7745 H   0  0  0  0  0  0  0  0  0  0  0  0
    2.7345    3.4227    0.1057 H   0  0  0  0  0  0  0  0  0  0  0  0
    3.2043    5.1872   -1.5981 H   0  0  0  0  0  0  0  0  0  0  0  0
    1.9313    5.2216   -3.7362 H   0  0  0  0  0  0  0  0  0  0  0  0
    0.1844    3.4923   -4.1754 H   0  0  0  0  0  0  0  0  0  0  0  0
   -1.4751    1.7763   -2.6066 H   0  0  0  0  0  0  0  0  0  0  0  0
   -0.1348    0.6670   -3.0725 H   0  0  0  0  0  0  0  0  0  0  0  0
  1  2  1  0
  2  3  1  0
  3  4  2  0
  3  5  1  0
  5  6  1  0
  6  7  1  0
  7  8  2  0
  8  9  1  0
  9 10  1  0
 10 11  2  0
 11 12  1  0
 12 13  2  0
 13 14  1  0
 14 15  2  0
  5 16  1  0
 16 17  1  0
 17 18  1  0
 18 19  2  0
 19 20  1  0
 20 21  2  0
 21 22  1  0
 22 23  2  0
 23 24  1  0
 15  7  1  0
 24 16  1  0
 15 10  1  0
 23 18  1  0
  1 25  1  0
  1 26  1  0
  1 27  1  0
  5 28  1  6
  6 29  1  0
  6 30  1  0
  8 31  1  0
  9 32  1  0
 11 33  1  0
 12 34  1  0
 13 35  1  0
 14 36  1  0
 16 37  1  0
 17 38  1  0
 17 39  1  0
 19 40  1  0
 20 41  1  0
 21 42  1  0
 22 43  1  0
 24 44  1  0
 24 45  1  0
M  CHG  1  16   1
M  END
>  <UniqueID>  (45) 
44

>  <SMILES>  (45) 
COC(=O)[C@H](Cc1c[nH]c2ccccc12)[NH+]1Cc2ccccc2C1

>  <Energy>  (45) 
94.12423620746988

>  <Genealogy>  (45) 
COC(=O)[C@H](Cc1c[nH]c2ccccc12)[NH+]1Cc2ccccc2C1 (protonated)
COC(=O)[C@H](Cc1c[nH]c2ccccc12)[NH+]1Cc2ccccc2C1 (3D coordinates assigned)
COC(=O)[C@H](Cc1c[nH]c2ccccc12)[NH+]1Cc2ccccc2C1 (nonaromatic ring conformer: 94.12423620746988 kcal/mol)

$$$$
untitled_line_45
     RDKit          3D

 34 35  0  0  0  0  0  0  0  0999 V2000
    0.0331   -2.0225   -0.7055 C   0  0  0  0  0  0  0  0  0  0  0  0
   -1.3851   -1.6774   -1.1716 C   0  0  0  0  0  0  0  0  0  0  0  0
   -2.0414   -2.8829   -1.8512 C   0  0  0  0  0  0  0  0  0  0  0  0
   -2.2319   -1.2059   -0.0087 C   0  0  0  0  0  0  0  0  0  0  0  0
   -2.3759   -1.9295    0.9667 O   0  0  0  0  0  0  0  0  0  0  0  0
   -2.9017    0.1520   -0.0228 C   0  0  2  0  0  0  0  0  0  0  0  0
   -3.5993    0.3277   -1.2282 O   0  0  0  0  0  0  0  0  0  0  0  0
   -1.8793    1.2898    0.1347 C   0  0  0  0  0  0  0  0  0  0  0  0
   -1.1165    1.2063    1.4306 C   0  0  0  0  0  0  0  0  0  0  0  0
   -1.6590    1.1157    2.7110 C   0  0  0  0  0  0  0  0  0  0  0  0
   -0.6788    1.1128    3.6420 N   0  0  0  0  0  0  0  0  0  0  0  0
    0.4773    1.2164    2.9651 C   0  0  0  0  0  0  0  0  0  0  0  0
    1.7641    1.2717    3.4990 C   0  0  0  0  0  0  0  0  0  0  0  0
    2.8421    1.4022    2.6054 C   0  0  0  0  0  0  0  0  0  0  0  0
    2.6125    1.4793    1.2143 C   0  0  0  0  0  0  0  0  0  0  0  0
    1.3031    1.4245    0.7034 C   0  0  0  0  0  0  0  0  0  0  0  0
    0.2526    1.2849    1.6131 C   0  0  0  0  0  0  0  0  0  0  0  0
    0.6614   -2.3101   -1.5753 H   0  0  0  0  0  0  0  0  0  0  0  0
    0.4997   -1.1423   -0.2182 H   0  0  0  0  0  0  0  0  0  0  0  0
    0.0179   -2.8653    0.0187 H   0  0  0  0  0  0  0  0  0  0  0  0
   -1.3064   -0.8649   -1.9268 H   0  0  0  0  0  0  0  0  0  0  0  0
   -1.4430   -3.1971   -2.7329 H   0  0  0  0  0  0  0  0  0  0  0  0
   -2.1187   -3.7397   -1.1475 H   0  0  0  0  0  0  0  0  0  0  0  0
   -3.0607   -2.6136   -2.2022 H   0  0  0  0  0  0  0  0  0  0  0  0
   -3.6265    0.2160    0.8226 H   0  0  0  0  0  0  0  0  0  0  0  0
   -4.3937   -0.2673   -1.1896 H   0  0  0  0  0  0  0  0  0  0  0  0
   -2.4152    2.2628    0.1112 H   0  0  0  0  0  0  0  0  0  0  0  0
   -1.1790    1.2794   -0.7264 H   0  0  0  0  0  0  0  0  0  0  0  0
   -2.7132    1.0636    2.9491 H   0  0  0  0  0  0  0  0  0  0  0  0
   -0.8008    1.0560    4.6776 H   0  0  0  0  0  0  0  0  0  0  0  0
    1.9296    1.2187    4.5673 H   0  0  0  0  0  0  0  0  0  0  0  0
    3.8539    1.4474    2.9868 H   0  0  0  0  0  0  0  0  0  0  0  0
    3.4496    1.5829    0.5362 H   0  0  0  0  0  0  0  0  0  0  0  0
    1.1270    1.4859   -0.3620 H   0  0  0  0  0  0  0  0  0  0  0  0
  1  2  1  0
  2  3  1  0
  2  4  1  0
  4  5  2  0
  4  6  1  0
  6  7  1  0
  6  8  1  0
  8  9  1  0
  9 10  2  0
 10 11  1  0
 11 12  1  0
 12 13  2  0
 13 14  1  0
 14 15  2  0
 15 16  1  0
 16 17  2  0
 17  9  1  0
 17 12  1  0
  1 18  1  0
  1 19  1  0
  1 20  1  0
  2 21  1  0
  3 22  1  0
  3 23  1  0
  3 24  1  0
  6 25  1  1
  7 26  1  0
  8 27  1  0
  8 28  1  0
 10 29  1  0
 11 30  1  0
 13 31  1  0
 14 32  1  0
 15 33  1  0
 16 34  1  0
M  END
>  <UniqueID>  (46) 
45

>  <SMILES>  (46) 
CC(C)C(=O)[C@H](O)Cc1c[nH]c2ccccc12

>  <Energy>  (46) 
57.54348074299398

>  <Genealogy>  (46) 
CC(C)C(=O)[C@H](O)Cc1c[nH]c2ccccc12 (chirality)
CC(C)C(=O)[C@H](O)Cc1c[nH]c2ccccc12 (3D coordinates assigned)
CC(C)C(=O)[C@H](O)Cc1c[nH]c2ccccc12 (optimized conformer: 57.54348074299398 kcal/mol)

$$$$
untitled_line_46
     RDKit          3D

 45 49  0  0  0  0  0  0  0  0999 V2000
   -0.9654    2.9766    2.4728 O   0  0  0  0  0  0  0  0  0  0  0  0
   -0.7159    1.7479    2.3491 C   0  0  0  0  0  0  0  0  0  0  0  0
   -0.4023    1.0009    3.4814 O   0  0  0  0  0  0  0  0  0  0  0  0
   -0.7226    1.1041    0.9754 C   0  0  2  0  0  0  0  0  0  0  0  0
    0.5246    1.5856    0.1889 C   0  0  0  0  0  0  0  0  0  0  0  0
    1.8029    1.2969    0.9282 C   0  0  0  0  0  0  0  0  0  0  0  0
    2.4193    0.0551    1.0514 C   0  0  0  0  0  0  0  0  0  0  0  0
    3.5090    0.1454    1.8470 N   0  0  0  0  0  0  0  0  0  0  0  0
    3.5803    1.4304    2.2354 C   0  0  0  0  0  0  0  0  0  0  0  0
    4.5272    2.0046    3.0825 C   0  0  0  0  0  0  0  0  0  0  0  0
    4.4018    3.3746    3.3764 C   0  0  0  0  0  0  0  0  0  0  0  0
    3.3432    4.1305    2.8260 C   0  0  0  0  0  0  0  0  0  0  0  0
    2.4009    3.5243    1.9754 C   0  0  0  0  0  0  0  0  0  0  0  0
    2.5535    2.1650    1.6984 C   0  0  0  0  0  0  0  0  0  0  0  0
   -1.9963    1.4077    0.2594 N   0  0  0  0  0  4  0  0  0  0  0  0
   -3.1308    0.8487    0.9527 C   0  0  0  0  0  0  0  0  0  0  0  0
   -3.5263    1.2923    2.0210 O   0  0  0  0  0  0  0  0  0  0  0  0
   -3.8523   -0.2540    0.2428 C   0  0  2  0  0  0  0  0  0  0  0  0
   -3.5319   -1.6423    0.8239 C   0  0  1  0  0  0  0  0  0  0  0  0
   -4.3909   -2.6953    0.1141 C   0  0  0  0  0  0  0  0  0  0  0  0
   -3.6738   -2.7802   -1.2321 C   0  0  0  0  0  0  0  0  0  0  0  0
   -2.5524   -1.7571   -1.0179 C   0  0  2  0  0  0  0  0  0  0  0  0
   -2.2489   -1.9109    0.3379 O   0  0  0  0  0  0  0  0  0  0  0  0
   -3.1433   -0.3387   -1.0952 C   0  0  2  0  0  0  0  0  0  0  0  0
   -2.0980    0.7297   -1.0086 C   0  0  0  0  0  0  0  0  0  0  0  0
   -1.4758    1.0947   -1.9949 O   0  0  0  0  0  0  0  0  0  0  0  0
   -0.1751    0.0160    3.4172 H   0  0  0  0  0  0  0  0  0  0  0  0
   -0.6281    0.0017    1.1051 H   0  0  0  0  0  0  0  0  0  0  0  0
    0.4434    2.6715   -0.0308 H   0  0  0  0  0  0  0  0  0  0  0  0
    0.5993    1.0523   -0.7790 H   0  0  0  0  0  0  0  0  0  0  0  0
    2.0788   -0.8654    0.5953 H   0  0  0  0  0  0  0  0  0  0  0  0
    4.1529   -0.6317    2.1153 H   0  0  0  0  0  0  0  0  0  0  0  0
    5.3316    1.4158    3.5040 H   0  0  0  0  0  0  0  0  0  0  0  0
    5.1197    3.8515    4.0308 H   0  0  0  0  0  0  0  0  0  0  0  0
    3.2551    5.1831    3.0615 H   0  0  0  0  0  0  0  0  0  0  0  0
    1.5867    4.0993    1.5550 H   0  0  0  0  0  0  0  0  0  0  0  0
   -2.1351    2.4367    0.1213 H   0  0  0  0  0  0  0  0  0  0  0  0
   -4.9400   -0.0402    0.1473 H   0  0  0  0  0  0  0  0  0  0  0  0
   -3.5909   -1.6959    1.9324 H   0  0  0  0  0  0  0  0  0  0  0  0
   -4.3332   -3.6668    0.6518 H   0  0  0  0  0  0  0  0  0  0  0  0
   -5.4521   -2.3806    0.0073 H   0  0  0  0  0  0  0  0  0  0  0  0
   -3.2461   -3.7949   -1.3860 H   0  0  0  0  0  0  0  0  0  0  0  0
   -4.3397   -2.5141   -2.0821 H   0  0  0  0  0  0  0  0  0  0  0  0
   -1.6719   -1.9194   -1.6763 H   0  0  0  0  0  0  0  0  0  0  0  0
   -3.8262   -0.1770   -1.9586 H   0  0  0  0  0  0  0  0  0  0  0  0
  1  2  2  0
  2  3  1  0
  2  4  1  0
  4  5  1  0
  5  6  1  0
  6  7  2  0
  7  8  1  0
  8  9  1  0
  9 10  2  0
 10 11  1  0
 11 12  2  0
 12 13  1  0
 13 14  2  0
  4 15  1  0
 15 16  1  0
 16 17  2  0
 16 18  1  0
 18 19  1  0
 19 20  1  0
 20 21  1  0
 21 22  1  0
 22 23  1  0
 22 24  1  0
 24 25  1  0
 25 26  2  0
 14  6  1  0
 25 15  1  0
 14  9  1  0
 24 18  1  0
 23 19  1  0
  3 27  1  0
  4 28  1  1
  5 29  1  0
  5 30  1  0
  7 31  1  0
  8 32  1  0
 10 33  1  0
 11 34  1  0
 12 35  1  0
 13 36  1  0
 15 37  1  0
 18 38  1  6
 19 39  1  1
 20 40  1  0
 20 41  1  0
 21 42  1  0
 21 43  1  0
 22 44  1  6
 24 45  1  6
M  CHG  1  15   1
M  END
>  <UniqueID>  (47) 
46

>  <SMILES>  (47) 
O=C(O)[C@H](Cc1c[nH]c2ccccc12)[NH+]1C(=O)[C@@H]2[C@H]3CC[C@H](O3)[C@@H]2C1=O

>  <Energy>  (47) 
108.83390666286117

>  <Genealogy>  (47) 
O=C(O)[C@H](Cc1c[nH]c2ccccc12)[NH+]1C(=O)[C@@H]2[C@H]3CC[C@H](O3)[C@@H]2C1=O (protonated)
O=C(O)[C@H](Cc1c[nH]c2ccccc12)[NH+]1C(=O)[C@@H]2[C@H]3CC[C@H](O3)[C@@H]2C1=O (3D coordinates assigned)
O=C(O)[C@H](Cc1c[nH]c2ccccc12)[NH+]1C(=O)[C@@H]2[C@H]3CC[C@H](O3)[C@@H]2C1=O (nonaromatic ring conformer: 108.83390666286117 kcal/mol)

$$$$
untitled_line_47
     RDKit          3D

 34 36  0  0  0  0  0  0  0  0999 V2000
    3.1766   -0.0308   -1.8852 O   0  0  0  0  0  0  0  0  0  0  0  0
    2.5923    0.6378   -0.9913 C   0  0  0  0  0  0  0  0  0  0  0  0
    3.2981    1.0072    0.1509 O   0  0  0  0  0  0  0  0  0  0  0  0
    1.1328    1.0096   -1.1544 C   0  0  2  0  0  0  0  0  0  0  0  0
    0.2929   -0.2971   -1.0599 C   0  0  0  0  0  0  0  0  0  0  0  0
   -1.0687   -0.0927   -0.4464 C   0  0  0  0  0  0  0  0  0  0  0  0
   -1.3509    0.5289    0.7696 C   0  0  0  0  0  0  0  0  0  0  0  0
   -2.6676    0.4306    1.0598 N   0  0  0  0  0  0  0  0  0  0  0  0
   -3.2188   -0.2684    0.0537 C   0  0  0  0  0  0  0  0  0  0  0  0
   -4.5539   -0.6489   -0.0752 C   0  0  0  0  0  0  0  0  0  0  0  0
   -4.9151   -1.4108   -1.2007 C   0  0  0  0  0  0  0  0  0  0  0  0
   -3.9438   -1.7768   -2.1580 C   0  0  0  0  0  0  0  0  0  0  0  0
   -2.6027   -1.3825   -2.0002 C   0  0  0  0  0  0  0  0  0  0  0  0
   -2.2744   -0.6185   -0.8781 C   0  0  0  0  0  0  0  0  0  0  0  0
    0.9256    1.7341   -2.4405 N   0  0  0  0  0  4  0  0  0  0  0  0
   -0.4227    2.2131   -2.5980 C   0  0  0  0  0  0  0  0  0  0  0  0
   -1.3871    1.4692   -2.9171 O   0  0  0  0  0  0  0  0  0  0  0  0
   -0.5300    3.6640   -2.5312 C   0  0  0  0  0  0  0  0  0  0  0  0
    0.6923    4.1433   -2.4367 C   0  0  0  0  0  0  0  0  0  0  0  0
    1.6023    3.0067   -2.4313 C   0  0  0  0  0  0  0  0  0  0  0  0
    2.8564    3.1250   -2.4732 O   0  0  0  0  0  0  0  0  0  0  0  0
    2.8598    1.5348    0.8961 H   0  0  0  0  0  0  0  0  0  0  0  0
    0.8644    1.6810   -0.3072 H   0  0  0  0  0  0  0  0  0  0  0  0
    0.8095   -1.0459   -0.4192 H   0  0  0  0  0  0  0  0  0  0  0  0
    0.2037   -0.7526   -2.0684 H   0  0  0  0  0  0  0  0  0  0  0  0
   -0.6292    1.0055    1.4198 H   0  0  0  0  0  0  0  0  0  0  0  0
   -3.1495    0.8012    1.9088 H   0  0  0  0  0  0  0  0  0  0  0  0
   -5.2895   -0.3712    0.6686 H   0  0  0  0  0  0  0  0  0  0  0  0
   -5.9432   -1.7221   -1.3315 H   0  0  0  0  0  0  0  0  0  0  0  0
   -4.2326   -2.3662   -3.0185 H   0  0  0  0  0  0  0  0  0  0  0  0
   -1.8582   -1.6641   -2.7324 H   0  0  0  0  0  0  0  0  0  0  0  0
    1.2129    1.1732   -3.2768 H   0  0  0  0  0  0  0  0  0  0  0  0
   -1.4348    4.2527   -2.6044 H   0  0  0  0  0  0  0  0  0  0  0  0
    0.9597    5.1913   -2.4104 H   0  0  0  0  0  0  0  0  0  0  0  0
  1  2  2  0
  2  3  1  0
  2  4  1  0
  4  5  1  0
  5  6  1  0
  6  7  2  0
  7  8  1  0
  8  9  1  0
  9 10  2  0
 10 11  1  0
 11 12  2  0
 12 13  1  0
 13 14  2  0
  4 15  1  0
 15 16  1  0
 16 17  2  0
 16 18  1  0
 18 19  2  0
 19 20  1  0
 20 21  2  0
 14  6  1  0
 20 15  1  0
 14  9  1  0
  3 22  1  0
  4 23  1  1
  5 24  1  0
  5 25  1  0
  7 26  1  0
  8 27  1  0
 10 28  1  0
 11 29  1  0
 12 30  1  0
 13 31  1  0
 15 32  1  0
 18 33  1  0
 19 34  1  0
M  CHG  1  15   1
M  END
>  <UniqueID>  (48) 
47

>  <SMILES>  (48) 
O=C(O)[C@H](Cc1c[nH]c2ccccc12)[NH+]1C(=O)C=CC1=O

>  <Energy>  (48) 
91.25356142362598

>  <Genealogy>  (48) 
O=C(O)[C@H](Cc1c[nH]c2ccccc12)[NH+]1C(=O)C=CC1=O (protonated)
O=C(O)[C@H](Cc1c[nH]c2ccccc12)[NH+]1C(=O)C=CC1=O (3D coordinates assigned)
O=C(O)[C@H](Cc1c[nH]c2ccccc12)[NH+]1C(=O)C=CC1=O (nonaromatic ring conformer: 91.25356142362598 kcal/mol)

$$$$
untitled_line_48
     RDKit          3D

 52 55  0  0  0  0  0  0  0  0999 V2000
   -1.1350   -3.0661   -0.3669 O   0  0  0  0  0  0  0  0  0  0  0  0
   -0.1794   -2.2509   -0.4816 C   0  0  0  0  0  0  0  0  0  0  0  0
    1.2234   -2.7168   -0.2384 C   0  0  0  0  0  0  0  0  0  0  0  0
    1.6346   -2.4347    1.2118 C   0  0  0  0  0  0  0  0  0  0  0  0
    3.0808   -2.8614    1.4970 C   0  0  0  0  0  0  0  0  0  0  0  0
    4.0691   -1.9638    0.8091 C   0  0  0  0  0  0  0  0  0  0  0  0
    4.7314   -2.2188   -0.3889 C   0  0  0  0  0  0  0  0  0  0  0  0
    5.4831   -1.1533   -0.7486 N   0  0  0  0  0  0  0  0  0  0  0  0
    5.2940   -0.2258    0.2068 C   0  0  0  0  0  0  0  0  0  0  0  0
    5.8416    1.0547    0.2608 C   0  0  0  0  0  0  0  0  0  0  0  0
    5.4861    1.8762    1.3464 C   0  0  0  0  0  0  0  0  0  0  0  0
    4.5993    1.4060    2.3407 C   0  0  0  0  0  0  0  0  0  0  0  0
    4.0602    0.1096    2.2589 C   0  0  0  0  0  0  0  0  0  0  0  0
    4.4343   -0.6825    1.1729 C   0  0  0  0  0  0  0  0  0  0  0  0
   -0.4334   -0.8729   -0.7887 N   0  0  0  0  0  0  0  0  0  0  0  0
   -1.7866   -0.3582   -1.0139 C   0  0  1  0  0  0  0  0  0  0  0  0
   -1.7868    1.1813   -0.9599 C   0  0  0  0  0  0  0  0  0  0  0  0
   -3.1807    1.7379   -1.0032 C   0  0  0  0  0  0  0  0  0  0  0  0
   -3.8546    2.2045   -2.1284 C   0  0  0  0  0  0  0  0  0  0  0  0
   -5.1152    2.5731   -1.8030 N   0  0  0  0  0  0  0  0  0  0  0  0
   -5.2454    2.3323   -0.4858 C   0  0  0  0  0  0  0  0  0  0  0  0
   -6.3787    2.5315    0.3026 C   0  0  0  0  0  0  0  0  0  0  0  0
   -6.3034    2.1822    1.6633 C   0  0  0  0  0  0  0  0  0  0  0  0
   -5.1119    1.6449    2.1989 C   0  0  0  0  0  0  0  0  0  0  0  0
   -3.9832    1.4558    1.3800 C   0  0  0  0  0  0  0  0  0  0  0  0
   -4.0872    1.8159    0.0363 C   0  0  0  0  0  0  0  0  0  0  0  0
   -2.2998   -0.8473   -2.3432 C   0  0  0  0  0  0  0  0  0  0  0  0
   -3.4237   -1.4101   -2.4120 O   0  0  0  0  0  0  0  0  0  0  0  0
   -1.5552   -0.6684   -3.5060 O   0  0  0  0  0  0  0  0  0  0  0  0
    1.9013   -2.1876   -0.9408 H   0  0  0  0  0  0  0  0  0  0  0  0
    1.2963   -3.8069   -0.4458 H   0  0  0  0  0  0  0  0  0  0  0  0
    0.9614   -2.9990    1.8930 H   0  0  0  0  0  0  0  0  0  0  0  0
    1.5121   -1.3529    1.4378 H   0  0  0  0  0  0  0  0  0  0  0  0
    3.2610   -2.8162    2.5928 H   0  0  0  0  0  0  0  0  0  0  0  0
    3.2381   -3.9156    1.1787 H   0  0  0  0  0  0  0  0  0  0  0  0
    4.6520   -3.1268   -0.9735 H   0  0  0  0  0  0  0  0  0  0  0  0
    6.0752   -1.0661   -1.6051 H   0  0  0  0  0  0  0  0  0  0  0  0
    6.5133    1.4099   -0.5093 H   0  0  0  0  0  0  0  0  0  0  0  0
    5.8912    2.8769    1.4175 H   0  0  0  0  0  0  0  0  0  0  0  0
    4.3299    2.0488    3.1687 H   0  0  0  0  0  0  0  0  0  0  0  0
    3.3764   -0.2560    3.0138 H   0  0  0  0  0  0  0  0  0  0  0  0
    0.3816   -0.2198   -0.8413 H   0  0  0  0  0  0  0  0  0  0  0  0
   -2.4460   -0.7332   -0.1984 H   0  0  0  0  0  0  0  0  0  0  0  0
   -1.3019    1.5162   -0.0168 H   0  0  0  0  0  0  0  0  0  0  0  0
   -1.1918    1.5983   -1.8026 H   0  0  0  0  0  0  0  0  0  0  0  0
   -3.4485    2.2583   -3.1311 H   0  0  0  0  0  0  0  0  0  0  0  0
   -5.8417    2.9527   -2.4506 H   0  0  0  0  0  0  0  0  0  0  0  0
   -7.2897    2.9361   -0.1187 H   0  0  0  0  0  0  0  0  0  0  0  0
   -7.1658    2.3214    2.3025 H   0  0  0  0  0  0  0  0  0  0  0  0
   -5.0688    1.3727    3.2450 H   0  0  0  0  0  0  0  0  0  0  0  0
   -3.0689    1.0395    1.7820 H   0  0  0  0  0  0  0  0  0  0  0  0
   -0.6444   -0.2255   -3.4847 H   0  0  0  0  0  0  0  0  0  0  0  0
  1  2  2  0
  2  3  1  0
  3  4  1  0
  4  5  1  0
  5  6  1  0
  6  7  2  0
  7  8  1  0
  8  9  1  0
  9 10  2  0
 10 11  1  0
 11 12  2  0
 12 13  1  0
 13 14  2  0
  2 15  1  0
 15 16  1  0
 16 17  1  0
 17 18  1  0
 18 19  2  0
 19 20  1  0
 20 21  1  0
 21 22  2  0
 22 23  1  0
 23 24  2  0
 24 25  1  0
 25 26  2  0
 16 27  1  0
 27 28  2  0
 27 29  1  0
 14  6  1  0
 26 18  1  0
 14  9  1  0
 26 21  1  0
  3 30  1  0
  3 31  1  0
  4 32  1  0
  4 33  1  0
  5 34  1  0
  5 35  1  0
  7 36  1  0
  8 37  1  0
 10 38  1  0
 11 39  1  0
 12 40  1  0
 13 41  1  0
 15 42  1  0
 16 43  1  1
 17 44  1  0
 17 45  1  0
 19 46  1  0
 20 47  1  0
 22 48  1  0
 23 49  1  0
 24 50  1  0
 25 51  1  0
 29 52  1  0
M  END
>  <UniqueID>  (49) 
48

>  <SMILES>  (49) 
O=C(CCCc1c[nH]c2ccccc12)N[C@@H](Cc1c[nH]c2ccccc12)C(=O)O

>  <Energy>  (49) 
109.63296849942206

>  <Genealogy>  (49) 
O=C(CCCc1c[nH]c2ccccc12)N[C@@H](Cc1c[nH]c2ccccc12)C(=O)O (3D coordinates assigned)
O=C(CCCc1c[nH]c2ccccc12)N[C@@H](Cc1c[nH]c2ccccc12)C(=O)O (optimized conformer: 109.63296849942206 kcal/mol)

$$$$
untitled_line_49
     RDKit          3D

 54 57  0  0  0  0  0  0  0  0999 V2000
    0.0046   -2.7299   -1.1655 H   0  0  0  0  0  0  0  0  0  0  0  0
    0.4565   -2.5890   -2.0609 O   0  0  0  0  0  0  0  0  0  0  0  0
    0.2496   -1.4294   -2.8031 C   0  0  0  0  0  0  0  0  0  0  0  0
    0.8103   -1.3091   -3.9249 O   0  0  0  0  0  0  0  0  0  0  0  0
   -0.6665   -0.3356   -2.2886 C   0  0  2  0  0  0  0  0  0  0  0  0
   -0.9553   -0.5857   -1.2407 H   0  0  0  0  0  0  0  0  0  0  0  0
   -1.9589   -0.3176   -3.1446 C   0  0  0  0  0  0  0  0  0  0  0  0
   -2.6442    0.4839   -2.8003 H   0  0  0  0  0  0  0  0  0  0  0  0
   -1.7099   -0.1056   -4.2073 H   0  0  0  0  0  0  0  0  0  0  0  0
   -2.7069   -1.6171   -3.0472 C   0  0  0  0  0  0  0  0  0  0  0  0
   -2.6875   -2.6599   -3.9686 C   0  0  0  0  0  0  0  0  0  0  0  0
   -2.1552   -2.6594   -4.9109 H   0  0  0  0  0  0  0  0  0  0  0  0
   -3.4185   -3.7037   -3.5147 N   0  0  0  0  0  0  0  0  0  0  0  0
   -3.5702   -4.6173   -3.9972 H   0  0  0  0  0  0  0  0  0  0  0  0
   -3.8898   -3.3322   -2.3115 C   0  0  0  0  0  0  0  0  0  0  0  0
   -4.6814   -4.0842   -1.4445 C   0  0  0  0  0  0  0  0  0  0  0  0
   -5.0027   -5.0844   -1.7049 H   0  0  0  0  0  0  0  0  0  0  0  0
   -5.0466   -3.5027   -0.2163 C   0  0  0  0  0  0  0  0  0  0  0  0
   -5.6602   -4.0592    0.4801 H   0  0  0  0  0  0  0  0  0  0  0  0
   -4.6147   -2.1990    0.1152 C   0  0  0  0  0  0  0  0  0  0  0  0
   -4.8997   -1.7630    1.0638 H   0  0  0  0  0  0  0  0  0  0  0  0
   -3.8149   -1.4642   -0.7787 C   0  0  0  0  0  0  0  0  0  0  0  0
   -3.4778   -0.4660   -0.5304 H   0  0  0  0  0  0  0  0  0  0  0  0
   -3.4732   -2.0660   -1.9900 C   0  0  0  0  0  0  0  0  0  0  0  0
    0.0195    0.9865   -2.3009 N   0  0  2  0  0  4  0  0  0  0  0  0
    0.3231    1.2421   -3.2726 H   0  0  0  0  0  0  0  0  0  0  0  0
    1.1717    0.9768   -1.4385 C   0  0  0  0  0  0  0  0  0  0  0  0
    2.2654    0.4610   -1.7997 O   0  0  0  0  0  0  0  0  0  0  0  0
    1.0106    1.6473   -0.1492 C   0  0  0  0  0  0  0  0  0  0  0  0
    1.9981    1.7758    0.7507 C   0  0  0  0  0  0  0  0  0  0  0  0
    2.9488    1.2940    0.5551 H   0  0  0  0  0  0  0  0  0  0  0  0
    1.8503    2.4658    2.0486 C   0  0  0  0  0  0  0  0  0  0  0  0
    1.2953    3.7523    2.1372 C   0  0  0  0  0  0  0  0  0  0  0  0
    0.9571    4.2691    1.2481 H   0  0  0  0  0  0  0  0  0  0  0  0
    1.1966    4.3967    3.3731 C   0  0  0  0  0  0  0  0  0  0  0  0
    0.7589    5.3862    3.4126 H   0  0  0  0  0  0  0  0  0  0  0  0
    1.6671    3.7774    4.5466 C   0  0  0  0  0  0  0  0  0  0  0  0
    1.5553    4.4606    5.8248 N   0  0  0  0  0  4  0  0  0  0  0  0
    1.0905    5.3900    5.6880 H   0  0  0  0  0  0  0  0  0  0  0  0
    2.8842    4.7255    6.4007 C   0  0  0  0  0  0  0  0  0  0  0  0
    3.5160    5.2832    5.6744 H   0  0  0  0  0  0  0  0  0  0  0  0
    2.7889    5.3523    7.3146 H   0  0  0  0  0  0  0  0  0  0  0  0
    3.4051    3.7833    6.6784 H   0  0  0  0  0  0  0  0  0  0  0  0
    0.7153    3.6956    6.7616 C   0  0  0  0  0  0  0  0  0  0  0  0
    0.5366    4.2860    7.6872 H   0  0  0  0  0  0  0  0  0  0  0  0
    1.1944    2.7347    7.0499 H   0  0  0  0  0  0  0  0  0  0  0  0
   -0.2754    3.4790    6.3040 H   0  0  0  0  0  0  0  0  0  0  0  0
    2.2527    2.4974    4.4441 C   0  0  0  0  0  0  0  0  0  0  0  0
    2.6369    1.9932    5.3206 H   0  0  0  0  0  0  0  0  0  0  0  0
    2.3505    1.8562    3.2063 C   0  0  0  0  0  0  0  0  0  0  0  0
    2.8073    0.8753    3.1534 H   0  0  0  0  0  0  0  0  0  0  0  0
   -0.6618    2.2290    0.0690 S   0  0  0  0  0  0  0  0  0  0  0  0
   -0.8201    2.0103   -1.7060 C   0  0  0  0  0  0  0  0  0  0  0  0
   -1.3305    3.1034   -2.4948 S   0  0  0  0  0  0  0  0  0  0  0  0
  1  2  1  0
  2  3  1  0
  3  4  2  0
  3  5  1  0
  5  6  1  1
  5  7  1  0
  7  8  1  0
  7  9  1  0
  7 10  1  0
 10 11  2  0
 11 12  1  0
 11 13  1  0
 13 14  1  0
 13 15  1  0
 15 16  2  0
 16 17  1  0
 16 18  1  0
 18 19  1  0
 18 20  2  0
 20 21  1  0
 20 22  1  0
 22 23  1  0
 22 24  2  0
  5 25  1  0
 25 26  1  6
 25 27  1  0
 27 28  2  0
 27 29  1  0
 29 30  2  0
 30 31  1  0
 30 32  1  0
 32 33  2  0
 33 34  1  0
 33 35  1  0
 35 36  1  0
 35 37  2  0
 37 38  1  0
 38 39  1  0
 38 40  1  0
 40 41  1  0
 40 42  1  0
 40 43  1  0
 38 44  1  0
 44 45  1  0
 44 46  1  0
 44 47  1  0
 37 48  1  0
 48 49  1  0
 48 50  2  0
 50 51  1  0
 29 52  1  0
 52 53  1  0
 53 54  2  0
 24 10  1  0
 53 25  1  0
 24 15  1  0
 50 32  1  0
M  CHG  2  25   1  38   1
M  END
>  <UniqueID>  (50) 
49

>  <SMILES>  (50) 
C[NH+](C)c1ccc(/C=C2\SC(=S)[N@H+]([C@@H](Cc3c[nH]c4ccccc34)C(=O)O)C2=O)cc1

>  <Energy>  (50) 
116.36706597260896

>  <Genealogy>  (50) 
C[NH+](C)c1ccc(/C=C2\SC(=S)[NH+]([C@@H](Cc3c[nH]c4ccccc34)C(=O)O)C2=O)cc1 (protonated)
C[NH+](C)c1ccc(/C=C2\SC(=S)[N@H+]([C@@H](Cc3c[nH]c4ccccc34)C(=O)O)C2=O)cc1 (chirality)
C[NH+](C)c1ccc(/C=C2\SC(=S)[N@H+]([C@@H](Cc3c[nH]c4ccccc34)C(=O)O)C2=O)cc1 (cis-trans isomerization)
C[NH+](C)c1ccc(/C=C2\SC(=S)[N@H+]([C@@H](Cc3c[nH]c4ccccc34)C(=O)O)C2=O)cc1 (3D coordinates assigned)
C[NH+](C)c1ccc(/C=C2\SC(=S)[N@H+]([C@@H](Cc3c[nH]c4ccccc34)C(=O)O)C2=O)cc1 (nonaromatic ring conformer: 116.36706597260896 kcal/mol)

$$$$
untitled_line_50
     RDKit          3D

 33 34  0  0  0  0  0  0  0  0999 V2000
   -1.7948   -2.0103   -0.2338 O   0  0  0  0  0  0  0  0  0  0  0  0
   -1.3095   -2.5539    0.7952 C   0  0  0  0  0  0  0  0  0  0  0  0
   -2.2321   -3.1240    1.8250 C   0  0  0  0  0  0  0  0  0  0  0  0
   -2.6396   -1.8549    3.0603 S   0  0  0  0  0  0  0  0  0  0  0  0
    0.1110   -2.5841    1.0045 N   0  0  0  0  0  0  0  0  0  0  0  0
    1.0654   -1.9696    0.0751 C   0  0  1  0  0  0  0  0  0  0  0  0
    1.6055   -0.6487    0.6492 C   0  0  0  0  0  0  0  0  0  0  0  0
    0.5002    0.3422    0.8736 C   0  0  0  0  0  0  0  0  0  0  0  0
   -0.1113    0.6384    2.0880 C   0  0  0  0  0  0  0  0  0  0  0  0
   -1.1303    1.5084    1.9041 N   0  0  0  0  0  0  0  0  0  0  0  0
   -1.1718    1.7579    0.5838 C   0  0  0  0  0  0  0  0  0  0  0  0
   -2.0715    2.5804   -0.0927 C   0  0  0  0  0  0  0  0  0  0  0  0
   -1.9469    2.6814   -1.4905 C   0  0  0  0  0  0  0  0  0  0  0  0
   -0.9394    1.9639   -2.1731 C   0  0  0  0  0  0  0  0  0  0  0  0
   -0.0469    1.1393   -1.4644 C   0  0  0  0  0  0  0  0  0  0  0  0
   -0.1930    1.0626   -0.0792 C   0  0  0  0  0  0  0  0  0  0  0  0
    2.1949   -2.9265   -0.2017 C   0  0  0  0  0  0  0  0  0  0  0  0
    2.4172   -3.3037   -1.3826 O   0  0  0  0  0  0  0  0  0  0  0  0
    3.0060   -3.4044    0.8256 O   0  0  0  0  0  0  0  0  0  0  0  0
   -3.1699   -3.4704    1.3414 H   0  0  0  0  0  0  0  0  0  0  0  0
   -1.7576   -3.9931    2.3276 H   0  0  0  0  0  0  0  0  0  0  0  0
   -1.3368   -1.8463    3.5940 H   0  0  0  0  0  0  0  0  0  0  0  0
    0.4670   -2.9610    1.9121 H   0  0  0  0  0  0  0  0  0  0  0  0
    0.5655   -1.7495   -0.8943 H   0  0  0  0  0  0  0  0  0  0  0  0
    2.3419   -0.2079   -0.0576 H   0  0  0  0  0  0  0  0  0  0  0  0
    2.1300   -0.8325    1.6117 H   0  0  0  0  0  0  0  0  0  0  0  0
    0.1634    0.2252    3.0497 H   0  0  0  0  0  0  0  0  0  0  0  0
   -1.7649    1.8918    2.6394 H   0  0  0  0  0  0  0  0  0  0  0  0
   -2.8436    3.1218    0.4385 H   0  0  0  0  0  0  0  0  0  0  0  0
   -2.6291    3.3112   -2.0465 H   0  0  0  0  0  0  0  0  0  0  0  0
   -0.8544    2.0477   -3.2487 H   0  0  0  0  0  0  0  0  0  0  0  0
    0.7258    0.5850   -1.9811 H   0  0  0  0  0  0  0  0  0  0  0  0
    2.8655   -3.1260    1.7888 H   0  0  0  0  0  0  0  0  0  0  0  0
  1  2  2  0
  2  3  1  0
  3  4  1  0
  2  5  1  0
  5  6  1  0
  6  7  1  0
  7  8  1  0
  8  9  2  0
  9 10  1  0
 10 11  1  0
 11 12  2  0
 12 13  1  0
 13 14  2  0
 14 15  1  0
 15 16  2  0
  6 17  1  0
 17 18  2  0
 17 19  1  0
 16  8  1  0
 16 11  1  0
  3 20  1  0
  3 21  1  0
  4 22  1  0
  5 23  1  0
  6 24  1  6
  7 25  1  0
  7 26  1  0
  9 27  1  0
 10 28  1  0
 12 29  1  0
 13 30  1  0
 14 31  1  0
 15 32  1  0
 19 33  1  0
M  END
>  <UniqueID>  (51) 
50

>  <SMILES>  (51) 
O=C(CS)N[C@@H](Cc1c[nH]c2ccccc12)C(=O)O

>  <Energy>  (51) 
56.137783231814225

>  <Genealogy>  (51) 
O=C(CS)N[C@@H](Cc1c[nH]c2ccccc12)C(=O)O (3D coordinates assigned)
O=C(CS)N[C@@H](Cc1c[nH]c2ccccc12)C(=O)O (optimized conformer: 56.137783231814225 kcal/mol)

$$$$
untitled_line_51
     RDKit          3D

 32 33  0  0  0  0  0  0  0  0999 V2000
    1.2328    1.9922    1.6408 C   0  0  0  0  0  0  0  0  0  0  0  0
    0.7081    0.6452    2.0171 C   0  0  0  0  0  0  0  0  0  0  0  0
   -0.3946    0.5569    2.6218 O   0  0  0  0  0  0  0  0  0  0  0  0
    1.4318   -0.5359    1.6403 N   0  0  0  0  0  0  0  0  0  0  0  0
    0.9047   -1.8912    1.8369 C   0  0  1  0  0  0  0  0  0  0  0  0
    0.3727   -2.4577    0.5101 C   0  0  0  0  0  0  0  0  0  0  0  0
   -0.7889   -1.6536    0.0016 C   0  0  0  0  0  0  0  0  0  0  0  0
   -2.1141   -1.7696    0.4104 C   0  0  0  0  0  0  0  0  0  0  0  0
   -2.8740   -0.8154   -0.1738 N   0  0  0  0  0  0  0  0  0  0  0  0
   -2.0381   -0.0901   -0.9370 C   0  0  0  0  0  0  0  0  0  0  0  0
   -2.3539    1.0284   -1.7071 C   0  0  0  0  0  0  0  0  0  0  0  0
   -1.3101    1.6615   -2.4063 C   0  0  0  0  0  0  0  0  0  0  0  0
    0.0113    1.1703   -2.3184 C   0  0  0  0  0  0  0  0  0  0  0  0
    0.3010    0.0408   -1.5319 C   0  0  0  0  0  0  0  0  0  0  0  0
   -0.7555   -0.5688   -0.8539 C   0  0  0  0  0  0  0  0  0  0  0  0
    1.9887   -2.7829    2.3826 C   0  0  0  0  0  0  0  0  0  0  0  0
    3.0954   -2.8698    1.7867 O   0  0  0  0  0  0  0  0  0  0  0  0
    1.7761   -3.5393    3.5323 O   0  0  0  0  0  0  0  0  0  0  0  0
    1.0071    2.1905    0.5726 H   0  0  0  0  0  0  0  0  0  0  0  0
    2.3315    2.0270    1.7953 H   0  0  0  0  0  0  0  0  0  0  0  0
    0.7603    2.7804    2.2645 H   0  0  0  0  0  0  0  0  0  0  0  0
    2.3071   -0.4178    1.0805 H   0  0  0  0  0  0  0  0  0  0  0  0
    0.0705   -1.8739    2.5721 H   0  0  0  0  0  0  0  0  0  0  0  0
    1.1806   -2.4742   -0.2532 H   0  0  0  0  0  0  0  0  0  0  0  0
    0.0359   -3.5064    0.6634 H   0  0  0  0  0  0  0  0  0  0  0  0
   -2.4953   -2.4985    1.1137 H   0  0  0  0  0  0  0  0  0  0  0  0
   -3.8979   -0.6620   -0.0380 H   0  0  0  0  0  0  0  0  0  0  0  0
   -3.3680    1.4027   -1.7612 H   0  0  0  0  0  0  0  0  0  0  0  0
   -1.5205    2.5332   -3.0120 H   0  0  0  0  0  0  0  0  0  0  0  0
    0.8072    1.6686   -2.8562 H   0  0  0  0  0  0  0  0  0  0  0  0
    1.3131   -0.3336   -1.4540 H   0  0  0  0  0  0  0  0  0  0  0  0
    0.8954   -3.5078    4.0315 H   0  0  0  0  0  0  0  0  0  0  0  0
  1  2  1  0
  2  3  2  0
  2  4  1  0
  4  5  1  0
  5  6  1  0
  6  7  1  0
  7  8  2  0
  8  9  1  0
  9 10  1  0
 10 11  2  0
 11 12  1  0
 12 13  2  0
 13 14  1  0
 14 15  2  0
  5 16  1  0
 16 17  2  0
 16 18  1  0
 15  7  1  0
 15 10  1  0
  1 19  1  0
  1 20  1  0
  1 21  1  0
  4 22  1  0
  5 23  1  1
  6 24  1  0
  6 25  1  0
  8 26  1  0
  9 27  1  0
 11 28  1  0
 12 29  1  0
 13 30  1  0
 14 31  1  0
 18 32  1  0
M  END
>  <UniqueID>  (52) 
51

>  <SMILES>  (52) 
CC(=O)N[C@@H](Cc1c[nH]c2ccccc12)C(=O)O

>  <Energy>  (52) 
56.78644555108621

>  <Genealogy>  (52) 
CC(=O)N[C@@H](Cc1c[nH]c2ccccc12)C(=O)O (3D coordinates assigned)
CC(=O)N[C@@H](Cc1c[nH]c2ccccc12)C(=O)O (optimized conformer: 56.78644555108621 kcal/mol)

$$$$
untitled_line_52
     RDKit          3D

 47 50  0  0  0  0  0  0  0  0999 V2000
   -1.2111   -3.5351    0.7741 O   0  0  0  0  0  0  0  0  0  0  0  0
   -0.6831   -2.4575    1.1583 C   0  0  0  0  0  0  0  0  0  0  0  0
   -1.5178   -1.4399    1.8851 C   0  0  0  0  0  0  0  0  0  0  0  0
   -2.5261   -0.8327    0.9940 N   0  0  0  0  0  4  0  0  0  0  0  0
   -3.3086    0.1395    1.7198 C   0  0  0  0  0  0  0  0  0  0  0  0
   -4.0780   -0.1617    2.6719 O   0  0  0  0  0  0  0  0  0  0  0  0
   -3.1304    1.4901    1.2106 C   0  0  0  0  0  0  0  0  0  0  0  0
   -3.6888    2.7029    1.6139 C   0  0  0  0  0  0  0  0  0  0  0  0
   -3.3459    3.8595    0.8902 C   0  0  0  0  0  0  0  0  0  0  0  0
   -2.4761    3.7747   -0.2183 C   0  0  0  0  0  0  0  0  0  0  0  0
   -1.9408    2.5342   -0.6070 C   0  0  0  0  0  0  0  0  0  0  0  0
   -2.2816    1.4102    0.1448 C   0  0  0  0  0  0  0  0  0  0  0  0
   -1.9212    0.0114   -0.0130 C   0  0  0  0  0  0  0  0  0  0  0  0
   -1.2107   -0.4317   -0.9547 O   0  0  0  0  0  0  0  0  0  0  0  0
    0.6972   -2.1868    0.8807 N   0  0  0  0  0  0  0  0  0  0  0  0
    1.4908   -3.0151   -0.0312 C   0  0  1  0  0  0  0  0  0  0  0  0
    2.7148   -2.2406   -0.5528 C   0  0  0  0  0  0  0  0  0  0  0  0
    2.2996   -1.0401   -1.3554 C   0  0  0  0  0  0  0  0  0  0  0  0
    1.8152   -1.0521   -2.6605 C   0  0  0  0  0  0  0  0  0  0  0  0
    1.4670    0.1963   -3.0469 N   0  0  0  0  0  0  0  0  0  0  0  0
    1.7192    0.9953   -1.9954 C   0  0  0  0  0  0  0  0  0  0  0  0
    1.4924    2.3675   -1.9064 C   0  0  0  0  0  0  0  0  0  0  0  0
    1.7874    3.0055   -0.6888 C   0  0  0  0  0  0  0  0  0  0  0  0
    2.3094    2.2689    0.3970 C   0  0  0  0  0  0  0  0  0  0  0  0
    2.5366    0.8857    0.2761 C   0  0  0  0  0  0  0  0  0  0  0  0
    2.2231    0.2774   -0.9402 C   0  0  0  0  0  0  0  0  0  0  0  0
    1.9388   -4.2660    0.6733 C   0  0  0  0  0  0  0  0  0  0  0  0
    1.8741   -5.3746    0.0791 O   0  0  0  0  0  0  0  0  0  0  0  0
    2.4632   -4.2137    1.9630 O   0  0  0  0  0  0  0  0  0  0  0  0
   -2.0255   -1.9586    2.7292 H   0  0  0  0  0  0  0  0  0  0  0  0
   -0.8621   -0.6549    2.3291 H   0  0  0  0  0  0  0  0  0  0  0  0
   -3.1542   -1.5461    0.5544 H   0  0  0  0  0  0  0  0  0  0  0  0
   -4.3662    2.7540    2.4559 H   0  0  0  0  0  0  0  0  0  0  0  0
   -3.7604    4.8164    1.1777 H   0  0  0  0  0  0  0  0  0  0  0  0
   -2.2266    4.6669   -0.7769 H   0  0  0  0  0  0  0  0  0  0  0  0
   -1.2919    2.4538   -1.4675 H   0  0  0  0  0  0  0  0  0  0  0  0
    1.1421   -1.3640    1.3454 H   0  0  0  0  0  0  0  0  0  0  0  0
    0.8620   -3.2968   -0.9064 H   0  0  0  0  0  0  0  0  0  0  0  0
    3.3196   -2.9054   -1.2067 H   0  0  0  0  0  0  0  0  0  0  0  0
    3.3639   -1.9267    0.2926 H   0  0  0  0  0  0  0  0  0  0  0  0
    1.7070   -1.9296   -3.2850 H   0  0  0  0  0  0  0  0  0  0  0  0
    1.0652    0.4760   -3.9688 H   0  0  0  0  0  0  0  0  0  0  0  0
    1.0844    2.9224   -2.7413 H   0  0  0  0  0  0  0  0  0  0  0  0
    1.6084    4.0671   -0.5821 H   0  0  0  0  0  0  0  0  0  0  0  0
    2.5348    2.7709    1.3292 H   0  0  0  0  0  0  0  0  0  0  0  0
    2.9364    0.3195    1.1067 H   0  0  0  0  0  0  0  0  0  0  0  0
    2.5546   -3.3367    2.4609 H   0  0  0  0  0  0  0  0  0  0  0  0
  1  2  2  0
  2  3  1  0
  3  4  1  0
  4  5  1  0
  5  6  2  0
  5  7  1  0
  7  8  2  0
  8  9  1  0
  9 10  2  0
 10 11  1  0
 11 12  2  0
 12 13  1  0
 13 14  2  0
  2 15  1  0
 15 16  1  0
 16 17  1  0
 17 18  1  0
 18 19  2  0
 19 20  1  0
 20 21  1  0
 21 22  2  0
 22 23  1  0
 23 24  2  0
 24 25  1  0
 25 26  2  0
 16 27  1  0
 27 28  2  0
 27 29  1  0
 13  4  1  0
 26 18  1  0
 12  7  1  0
 26 21  1  0
  3 30  1  0
  3 31  1  0
  4 32  1  0
  8 33  1  0
  9 34  1  0
 10 35  1  0
 11 36  1  0
 15 37  1  0
 16 38  1  6
 17 39  1  0
 17 40  1  0
 19 41  1  0
 20 42  1  0
 22 43  1  0
 23 44  1  0
 24 45  1  0
 25 46  1  0
 29 47  1  0
M  CHG  1   4   1
M  END
>  <UniqueID>  (53) 
52

>  <SMILES>  (53) 
O=C(C[NH+]1C(=O)c2ccccc2C1=O)N[C@@H](Cc1c[nH]c2ccccc12)C(=O)O

>  <Energy>  (53) 
100.35471932541975

>  <Genealogy>  (53) 
O=C(C[NH+]1C(=O)c2ccccc2C1=O)N[C@@H](Cc1c[nH]c2ccccc12)C(=O)O (protonated)
O=C(C[NH+]1C(=O)c2ccccc2C1=O)N[C@@H](Cc1c[nH]c2ccccc12)C(=O)O (3D coordinates assigned)
O=C(C[NH+]1C(=O)c2ccccc2C1=O)N[C@@H](Cc1c[nH]c2ccccc12)C(=O)O (nonaromatic ring conformer: 100.35471932541975 kcal/mol)

$$$$
untitled_line_53
     RDKit          3D

 43 46  0  0  0  0  0  0  0  0999 V2000
   -1.4536    3.6917    3.4385 C   0  0  0  0  0  0  0  0  0  0  0  0
   -0.6777    2.9413    2.5126 O   0  0  0  0  0  0  0  0  0  0  0  0
    0.3370    2.0657    2.9133 C   0  0  0  0  0  0  0  0  0  0  0  0
    0.6499    1.9814    4.1333 O   0  0  0  0  0  0  0  0  0  0  0  0
    1.1344    1.2940    1.8825 C   0  0  1  0  0  0  0  0  0  0  0  0
    1.4829   -0.1540    2.3546 C   0  0  0  0  0  0  0  0  0  0  0  0
    0.3131   -1.0950    2.4954 C   0  0  0  0  0  0  0  0  0  0  0  0
   -0.7778   -0.9608    3.3532 C   0  0  0  0  0  0  0  0  0  0  0  0
   -1.6269   -2.0026    3.2078 N   0  0  0  0  0  0  0  0  0  0  0  0
   -1.0776   -2.8045    2.2807 C   0  0  0  0  0  0  0  0  0  0  0  0
   -1.5930   -4.0043    1.7927 C   0  0  0  0  0  0  0  0  0  0  0  0
   -0.8491   -4.6918    0.8172 C   0  0  0  0  0  0  0  0  0  0  0  0
    0.3828   -4.1745    0.3618 C   0  0  0  0  0  0  0  0  0  0  0  0
    0.8799   -2.9626    0.8735 C   0  0  0  0  0  0  0  0  0  0  0  0
    0.1141   -2.2944    1.8321 C   0  0  0  0  0  0  0  0  0  0  0  0
    0.5445    1.3957    0.5149 N   0  0  0  0  0  4  0  0  0  0  0  0
   -0.6933    0.6706    0.3252 C   0  0  0  0  0  0  0  0  0  0  0  0
   -1.7570    0.9265    0.9506 O   0  0  0  0  0  0  0  0  0  0  0  0
   -0.5914   -0.3318   -0.7237 C   0  0  0  0  0  0  0  0  0  0  0  0
   -1.5196   -1.2605   -1.1928 C   0  0  0  0  0  0  0  0  0  0  0  0
   -1.1115   -2.1441   -2.2078 C   0  0  0  0  0  0  0  0  0  0  0  0
    0.2015   -2.0804   -2.7232 C   0  0  0  0  0  0  0  0  0  0  0  0
    1.1150   -1.1334   -2.2259 C   0  0  0  0  0  0  0  0  0  0  0  0
    0.6795   -0.2715   -1.2201 C   0  0  0  0  0  0  0  0  0  0  0  0
    1.3789    0.7726   -0.4872 C   0  0  0  0  0  0  0  0  0  0  0  0
    2.5654    1.1285   -0.7212 O   0  0  0  0  0  0  0  0  0  0  0  0
   -1.9939    3.0053    4.1244 H   0  0  0  0  0  0  0  0  0  0  0  0
   -0.7968    4.3689    4.0245 H   0  0  0  0  0  0  0  0  0  0  0  0
   -2.1947    4.3016    2.8825 H   0  0  0  0  0  0  0  0  0  0  0  0
    2.1120    1.8271    1.8501 H   0  0  0  0  0  0  0  0  0  0  0  0
    1.9955   -0.1020    3.3391 H   0  0  0  0  0  0  0  0  0  0  0  0
    2.2319   -0.5878    1.6614 H   0  0  0  0  0  0  0  0  0  0  0  0
   -0.9465   -0.1484    4.0457 H   0  0  0  0  0  0  0  0  0  0  0  0
   -2.5253   -2.1520    3.7186 H   0  0  0  0  0  0  0  0  0  0  0  0
   -2.5368   -4.3947    2.1506 H   0  0  0  0  0  0  0  0  0  0  0  0
   -1.2229   -5.6239    0.4143 H   0  0  0  0  0  0  0  0  0  0  0  0
    0.9465   -4.7109   -0.3902 H   0  0  0  0  0  0  0  0  0  0  0  0
    1.8202   -2.5642    0.5183 H   0  0  0  0  0  0  0  0  0  0  0  0
    0.4031    2.3968    0.2426 H   0  0  0  0  0  0  0  0  0  0  0  0
   -2.5186   -1.3096   -0.7799 H   0  0  0  0  0  0  0  0  0  0  0  0
   -1.8052   -2.8814   -2.5901 H   0  0  0  0  0  0  0  0  0  0  0  0
    0.5088   -2.7680   -3.5001 H   0  0  0  0  0  0  0  0  0  0  0  0
    2.1270   -1.0829   -2.6057 H   0  0  0  0  0  0  0  0  0  0  0  0
  1  2  1  0
  2  3  1  0
  3  4  2  0
  3  5  1  0
  5  6  1  0
  6  7  1  0
  7  8  2  0
  8  9  1  0
  9 10  1  0
 10 11  2  0
 11 12  1  0
 12 13  2  0
 13 14  1  0
 14 15  2  0
  5 16  1  0
 16 17  1  0
 17 18  2  0
 17 19  1  0
 19 20  2  0
 20 21  1  0
 21 22  2  0
 22 23  1  0
 23 24  2  0
 24 25  1  0
 25 26  2  0
 15  7  1  0
 25 16  1  0
 15 10  1  0
 24 19  1  0
  1 27  1  0
  1 28  1  0
  1 29  1  0
  5 30  1  6
  6 31  1  0
  6 32  1  0
  8 33  1  0
  9 34  1  0
 11 35  1  0
 12 36  1  0
 13 37  1  0
 14 38  1  0
 16 39  1  0
 20 40  1  0
 21 41  1  0
 22 42  1  0
 23 43  1  0
M  CHG  1  16   1
M  END
>  <UniqueID>  (54) 
53

>  <SMILES>  (54) 
COC(=O)[C@@H](Cc1c[nH]c2ccccc12)[NH+]1C(=O)c2ccccc2C1=O

>  <Energy>  (54) 
105.86879425067966

>  <Genealogy>  (54) 
COC(=O)C(Cc1c[nH]c2ccccc12)[NH+]1C(=O)c2ccccc2C1=O (protonated)
COC(=O)[C@@H](Cc1c[nH]c2ccccc12)[NH+]1C(=O)c2ccccc2C1=O (chirality)
COC(=O)[C@@H](Cc1c[nH]c2ccccc12)[NH+]1C(=O)c2ccccc2C1=O (3D coordinates assigned)
COC(=O)[C@@H](Cc1c[nH]c2ccccc12)[NH+]1C(=O)c2ccccc2C1=O (nonaromatic ring conformer: 105.86879425067966 kcal/mol)

$$$$
untitled_line_54
     RDKit          3D

 43 45  0  0  0  0  0  0  0  0999 V2000
    0.7366    0.1067    2.0976 O   0  0  0  0  0  0  0  0  0  0  0  0
    0.4655   -0.5352    1.0442 C   0  0  0  0  0  0  0  0  0  0  0  0
    1.0721   -0.0948   -0.2493 C   0  0  0  0  0  0  0  0  0  0  0  0
    2.4681   -0.3924   -0.2403 O   0  0  0  0  0  0  0  0  0  0  0  0
    3.3491   -0.0756   -1.2846 C   0  0  0  0  0  0  0  0  0  0  0  0
    2.9167    0.5423   -2.4769 C   0  0  0  0  0  0  0  0  0  0  0  0
    3.8374    0.8416   -3.4863 C   0  0  0  0  0  0  0  0  0  0  0  0
    5.1915    0.5278   -3.3172 C   0  0  0  0  0  0  0  0  0  0  0  0
    5.6262   -0.0867   -2.1389 C   0  0  0  0  0  0  0  0  0  0  0  0
    4.7086   -0.3878   -1.1276 C   0  0  0  0  0  0  0  0  0  0  0  0
   -0.4121   -1.6755    1.0863 N   0  0  0  0  0  0  0  0  0  0  0  0
   -1.2968   -1.9456    2.2254 C   0  0  1  0  0  0  0  0  0  0  0  0
   -2.7203   -1.4294    1.9405 C   0  0  0  0  0  0  0  0  0  0  0  0
   -2.7317    0.0623    1.7545 C   0  0  0  0  0  0  0  0  0  0  0  0
   -2.7325    1.0203    2.7655 C   0  0  0  0  0  0  0  0  0  0  0  0
   -2.5941    2.2613    2.2430 N   0  0  0  0  0  0  0  0  0  0  0  0
   -2.4912    2.0945    0.9128 C   0  0  0  0  0  0  0  0  0  0  0  0
   -2.2795    3.0835   -0.0476 C   0  0  0  0  0  0  0  0  0  0  0  0
   -2.1502    2.6797   -1.3892 C   0  0  0  0  0  0  0  0  0  0  0  0
   -2.2303    1.3117   -1.7366 C   0  0  0  0  0  0  0  0  0  0  0  0
   -2.4417    0.3350   -0.7462 C   0  0  0  0  0  0  0  0  0  0  0  0
   -2.5706    0.7661    0.5753 C   0  0  0  0  0  0  0  0  0  0  0  0
   -1.3172   -3.4246    2.5124 C   0  0  0  0  0  0  0  0  0  0  0  0
   -0.9210   -3.8489    3.6298 O   0  0  0  0  0  0  0  0  0  0  0  0
   -1.7632   -4.3398    1.5609 O   0  0  0  0  0  0  0  0  0  0  0  0
    0.5791   -0.6146   -1.1030 H   0  0  0  0  0  0  0  0  0  0  0  0
    0.9191    1.0042   -0.3614 H   0  0  0  0  0  0  0  0  0  0  0  0
    1.8754    0.7944   -2.6330 H   0  0  0  0  0  0  0  0  0  0  0  0
    3.5005    1.3195   -4.3999 H   0  0  0  0  0  0  0  0  0  0  0  0
    5.9023    0.7620   -4.0990 H   0  0  0  0  0  0  0  0  0  0  0  0
    6.6740   -0.3277   -2.0082 H   0  0  0  0  0  0  0  0  0  0  0  0
    5.0542   -0.8619   -0.2167 H   0  0  0  0  0  0  0  0  0  0  0  0
   -0.5559   -2.2221    0.2064 H   0  0  0  0  0  0  0  0  0  0  0  0
   -0.9154   -1.4279    3.1351 H   0  0  0  0  0  0  0  0  0  0  0  0
   -3.3843   -1.6844    2.7952 H   0  0  0  0  0  0  0  0  0  0  0  0
   -3.1394   -1.9183    1.0345 H   0  0  0  0  0  0  0  0  0  0  0  0
   -2.7980    0.8163    3.8264 H   0  0  0  0  0  0  0  0  0  0  0  0
   -2.5432    3.1613    2.7724 H   0  0  0  0  0  0  0  0  0  0  0  0
   -2.2061    4.1279    0.2298 H   0  0  0  0  0  0  0  0  0  0  0  0
   -1.9817    3.4219   -2.1591 H   0  0  0  0  0  0  0  0  0  0  0  0
   -2.1215    1.0118   -2.7707 H   0  0  0  0  0  0  0  0  0  0  0  0
   -2.4898   -0.7156   -1.0059 H   0  0  0  0  0  0  0  0  0  0  0  0
   -2.0886   -4.0435    0.6495 H   0  0  0  0  0  0  0  0  0  0  0  0
  1  2  2  0
  2  3  1  0
  3  4  1  0
  4  5  1  0
  5  6  2  0
  6  7  1  0
  7  8  2  0
  8  9  1  0
  9 10  2  0
  2 11  1  0
 11 12  1  0
 12 13  1  0
 13 14  1  0
 14 15  2  0
 15 16  1  0
 16 17  1  0
 17 18  2  0
 18 19  1  0
 19 20  2  0
 20 21  1  0
 21 22  2  0
 12 23  1  0
 23 24  2  0
 23 25  1  0
 10  5  1  0
 22 14  1  0
 22 17  1  0
  3 26  1  0
  3 27  1  0
  6 28  1  0
  7 29  1  0
  8 30  1  0
  9 31  1  0
 10 32  1  0
 11 33  1  0
 12 34  1  1
 13 35  1  0
 13 36  1  0
 15 37  1  0
 16 38  1  0
 18 39  1  0
 19 40  1  0
 20 41  1  0
 21 42  1  0
 25 43  1  0
M  END
>  <UniqueID>  (55) 
54

>  <SMILES>  (55) 
O=C(COc1ccccc1)N[C@@H](Cc1c[nH]c2ccccc12)C(=O)O

>  <Energy>  (55) 
69.8485998598248

>  <Genealogy>  (55) 
O=C(COc1ccccc1)N[C@@H](Cc1c[nH]c2ccccc12)C(=O)O (chirality)
O=C(COc1ccccc1)N[C@@H](Cc1c[nH]c2ccccc12)C(=O)O (3D coordinates assigned)
O=C(COc1ccccc1)N[C@@H](Cc1c[nH]c2ccccc12)C(=O)O (optimized conformer: 69.8485998598248 kcal/mol)

$$$$
untitled_line_55
     RDKit          3D

 26 27  0  0  0  0  0  0  0  0999 V2000
   -1.5490    0.6905    2.1722 O   0  0  0  0  0  0  0  0  0  0  0  0
   -2.1870    0.9219    1.1107 C   0  0  0  0  0  0  0  0  0  0  0  0
   -2.4822    2.2380    0.7675 O   0  0  0  0  0  0  0  0  0  0  0  0
   -2.5780   -0.2086    0.1978 C   0  0  2  0  0  0  0  0  0  0  0  0
   -2.6987   -1.3988    0.9348 O   0  0  0  0  0  0  0  0  0  0  0  0
   -1.5621   -0.3760   -0.9475 C   0  0  0  0  0  0  0  0  0  0  0  0
   -0.2027   -0.7896   -0.4553 C   0  0  0  0  0  0  0  0  0  0  0  0
    0.2116   -2.0858   -0.1625 C   0  0  0  0  0  0  0  0  0  0  0  0
    1.4770   -2.0809    0.3149 N   0  0  0  0  0  0  0  0  0  0  0  0
    1.8622   -0.7932    0.3339 C   0  0  0  0  0  0  0  0  0  0  0  0
    3.0875   -0.2847    0.7629 C   0  0  0  0  0  0  0  0  0  0  0  0
    3.2758    1.1085    0.7111 C   0  0  0  0  0  0  0  0  0  0  0  0
    2.2464    1.9528    0.2391 C   0  0  0  0  0  0  0  0  0  0  0  0
    1.0196    1.4119   -0.1865 C   0  0  0  0  0  0  0  0  0  0  0  0
    0.8629    0.0264   -0.1259 C   0  0  0  0  0  0  0  0  0  0  0  0
   -2.9697    2.4587   -0.0926 H   0  0  0  0  0  0  0  0  0  0  0  0
   -3.5676    0.0459   -0.2469 H   0  0  0  0  0  0  0  0  0  0  0  0
   -3.1884   -2.0437    0.3601 H   0  0  0  0  0  0  0  0  0  0  0  0
   -1.9366   -1.1487   -1.6532 H   0  0  0  0  0  0  0  0  0  0  0  0
   -1.4830    0.5721   -1.5219 H   0  0  0  0  0  0  0  0  0  0  0  0
   -0.3849   -2.9808   -0.2828 H   0  0  0  0  0  0  0  0  0  0  0  0
    2.0340   -2.9108    0.6173 H   0  0  0  0  0  0  0  0  0  0  0  0
    3.8689   -0.9392    1.1267 H   0  0  0  0  0  0  0  0  0  0  0  0
    4.2150    1.5362    1.0370 H   0  0  0  0  0  0  0  0  0  0  0  0
    2.4018    3.0232    0.2057 H   0  0  0  0  0  0  0  0  0  0  0  0
    0.2272    2.0547   -0.5463 H   0  0  0  0  0  0  0  0  0  0  0  0
  1  2  2  0
  2  3  1  0
  2  4  1  0
  4  5  1  0
  4  6  1  0
  6  7  1  0
  7  8  2  0
  8  9  1  0
  9 10  1  0
 10 11  2  0
 11 12  1  0
 12 13  2  0
 13 14  1  0
 14 15  2  0
 15  7  1  0
 15 10  1  0
  3 16  1  0
  4 17  1  6
  5 18  1  0
  6 19  1  0
  6 20  1  0
  8 21  1  0
  9 22  1  0
 11 23  1  0
 12 24  1  0
 13 25  1  0
 14 26  1  0
M  END
>  <UniqueID>  (56) 
55

>  <SMILES>  (56) 
O=C(O)[C@H](O)Cc1c[nH]c2ccccc12

>  <Energy>  (56) 
55.49149285369007

>  <Genealogy>  (56) 
O=C(O)[C@H](O)Cc1c[nH]c2ccccc12 (chirality)
O=C(O)[C@H](O)Cc1c[nH]c2ccccc12 (3D coordinates assigned)
O=C(O)[C@H](O)Cc1c[nH]c2ccccc12 (optimized conformer: 55.49149285369007 kcal/mol)

$$$$
untitled_line_56
     RDKit          3D

 28 29  0  0  0  0  0  0  0  0999 V2000
    3.3108    1.2832    0.1658 N   0  0  0  0  0  4  0  0  0  0  0  0
    1.9492    0.8650    0.5224 C   0  0  2  0  0  0  0  0  0  0  0  0
    1.2166    0.3049   -0.7133 C   0  0  0  0  0  0  0  0  0  0  0  0
   -0.1006   -0.3155   -0.3419 C   0  0  0  0  0  0  0  0  0  0  0  0
   -0.2923   -1.5892    0.1852 C   0  0  0  0  0  0  0  0  0  0  0  0
   -1.5975   -1.7876    0.4787 N   0  0  0  0  0  0  0  0  0  0  0  0
   -2.2294   -0.6468    0.1526 C   0  0  0  0  0  0  0  0  0  0  0  0
   -3.5869   -0.3630    0.2960 C   0  0  0  0  0  0  0  0  0  0  0  0
   -4.0365    0.9127   -0.0908 C   0  0  0  0  0  0  0  0  0  0  0  0
   -3.1291    1.8663   -0.6032 C   0  0  0  0  0  0  0  0  0  0  0  0
   -1.7642    1.5528   -0.7352 C   0  0  0  0  0  0  0  0  0  0  0  0
   -1.3486    0.2782   -0.3478 C   0  0  0  0  0  0  0  0  0  0  0  0
    1.1815    2.0186    1.1253 C   0  0  0  0  0  0  0  0  0  0  0  0
    1.2402    3.1629    0.6016 O   0  0  0  0  0  0  0  0  0  0  0  0
    0.3603    1.8198    2.2318 O   0  0  0  0  0  0  0  0  0  0  0  0
    3.7913    1.6825    1.0051 H   0  0  0  0  0  0  0  0  0  0  0  0
    3.2916    2.0010   -0.5954 H   0  0  0  0  0  0  0  0  0  0  0  0
    3.8602    0.4554   -0.1613 H   0  0  0  0  0  0  0  0  0  0  0  0
    2.0271    0.0548    1.2827 H   0  0  0  0  0  0  0  0  0  0  0  0
    1.0614    1.1074   -1.4665 H   0  0  0  0  0  0  0  0  0  0  0  0
    1.8459   -0.4768   -1.1912 H   0  0  0  0  0  0  0  0  0  0  0  0
    0.4839   -2.3234    0.3578 H   0  0  0  0  0  0  0  0  0  0  0  0
   -2.0215   -2.6483    0.8908 H   0  0  0  0  0  0  0  0  0  0  0  0
   -4.2735   -1.0981    0.6955 H   0  0  0  0  0  0  0  0  0  0  0  0
   -5.0840    1.1659    0.0079 H   0  0  0  0  0  0  0  0  0  0  0  0
   -3.4858    2.8456   -0.8946 H   0  0  0  0  0  0  0  0  0  0  0  0
   -1.0649    2.2814   -1.1233 H   0  0  0  0  0  0  0  0  0  0  0  0
    0.2610    0.9055    2.6565 H   0  0  0  0  0  0  0  0  0  0  0  0
  1  2  1  0
  2  3  1  0
  3  4  1  0
  4  5  2  0
  5  6  1  0
  6  7  1  0
  7  8  2  0
  8  9  1  0
  9 10  2  0
 10 11  1  0
 11 12  2  0
  2 13  1  0
 13 14  2  0
 13 15  1  0
 12  4  1  0
 12  7  1  0
  1 16  1  0
  1 17  1  0
  1 18  1  0
  2 19  1  1
  3 20  1  0
  3 21  1  0
  5 22  1  0
  6 23  1  0
  8 24  1  0
  9 25  1  0
 10 26  1  0
 11 27  1  0
 15 28  1  0
M  CHG  1   1   1
M  END
>  <UniqueID>  (57) 
56

>  <SMILES>  (57) 
[NH3+][C@H](Cc1c[nH]c2ccccc12)C(=O)O

>  <Energy>  (57) 
56.78548611782202

>  <Genealogy>  (57) 
[NH3+]C(Cc1c[nH]c2ccccc12)C(=O)O (protonated)
[NH3+][C@H](Cc1c[nH]c2ccccc12)C(=O)O (chirality)
[NH3+][C@H](Cc1c[nH]c2ccccc12)C(=O)O (3D coordinates assigned)
[NH3+][C@H](Cc1c[nH]c2ccccc12)C(=O)O (optimized conformer: 56.78548611782202 kcal/mol)

$$$$
untitled_line_57
     RDKit          3D

 31 32  0  0  0  0  0  0  0  0999 V2000
   -1.0682   -3.0514    0.0765 C   0  0  0  0  0  0  0  0  0  0  0  0
   -0.1356   -2.0352    0.5794 N   0  0  0  0  0  4  0  0  0  0  0  0
   -0.7878   -0.7197    0.7559 C   0  0  1  0  0  0  0  0  0  0  0  0
    0.1618    0.2499    1.4915 C   0  0  0  0  0  0  0  0  0  0  0  0
   -0.5204    1.5442    1.8364 C   0  0  0  0  0  0  0  0  0  0  0  0
   -1.3945    1.7573    2.8983 C   0  0  0  0  0  0  0  0  0  0  0  0
   -1.8800    3.0191    2.8649 N   0  0  0  0  0  0  0  0  0  0  0  0
   -1.3287    3.6011    1.7858 C   0  0  0  0  0  0  0  0  0  0  0  0
   -1.5423    4.8997    1.3257 C   0  0  0  0  0  0  0  0  0  0  0  0
   -0.8724    5.3015    0.1557 C   0  0  0  0  0  0  0  0  0  0  0  0
   -0.0157    4.4058   -0.5217 C   0  0  0  0  0  0  0  0  0  0  0  0
    0.1801    3.1006   -0.0352 C   0  0  0  0  0  0  0  0  0  0  0  0
   -0.4954    2.7314    1.1290 C   0  0  0  0  0  0  0  0  0  0  0  0
   -1.1985   -0.1341   -0.5748 C   0  0  0  0  0  0  0  0  0  0  0  0
   -2.3843    0.2535   -0.7530 O   0  0  0  0  0  0  0  0  0  0  0  0
   -0.2652    0.0002   -1.5988 O   0  0  0  0  0  0  0  0  0  0  0  0
   -1.4186   -2.7963   -0.9468 H   0  0  0  0  0  0  0  0  0  0  0  0
   -0.5556   -4.0362    0.0258 H   0  0  0  0  0  0  0  0  0  0  0  0
   -1.9443   -3.1517    0.7541 H   0  0  0  0  0  0  0  0  0  0  0  0
    0.2251   -2.3706    1.5035 H   0  0  0  0  0  0  0  0  0  0  0  0
    0.6752   -1.9571   -0.0787 H   0  0  0  0  0  0  0  0  0  0  0  0
   -1.6952   -0.8482    1.3917 H   0  0  0  0  0  0  0  0  0  0  0  0
    1.0657    0.4457    0.8753 H   0  0  0  0  0  0  0  0  0  0  0  0
    0.5073   -0.2183    2.4385 H   0  0  0  0  0  0  0  0  0  0  0  0
   -1.6693    1.0240    3.6454 H   0  0  0  0  0  0  0  0  0  0  0  0
   -2.5573    3.4460    3.5353 H   0  0  0  0  0  0  0  0  0  0  0  0
   -2.2044    5.5774    1.8491 H   0  0  0  0  0  0  0  0  0  0  0  0
   -1.0163    6.3028   -0.2288 H   0  0  0  0  0  0  0  0  0  0  0  0
    0.4930    4.7253   -1.4219 H   0  0  0  0  0  0  0  0  0  0  0  0
    0.8345    2.4115   -0.5519 H   0  0  0  0  0  0  0  0  0  0  0  0
   -0.5266    0.4040   -2.4901 H   0  0  0  0  0  0  0  0  0  0  0  0
  1  2  1  0
  2  3  1  0
  3  4  1  0
  4  5  1  0
  5  6  2  0
  6  7  1  0
  7  8  1  0
  8  9  2  0
  9 10  1  0
 10 11  2  0
 11 12  1  0
 12 13  2  0
  3 14  1  0
 14 15  2  0
 14 16  1  0
 13  5  1  0
 13  8  1  0
  1 17  1  0
  1 18  1  0
  1 19  1  0
  2 20  1  0
  2 21  1  0
  3 22  1  1
  4 23  1  0
  4 24  1  0
  6 25  1  0
  7 26  1  0
  9 27  1  0
 10 28  1  0
 11 29  1  0
 12 30  1  0
 16 31  1  0
M  CHG  1   2   1
M  END
>  <UniqueID>  (58) 
57

>  <SMILES>  (58) 
C[NH2+][C@@H](Cc1c[nH]c2ccccc12)C(=O)O

>  <Energy>  (58) 
60.36288305888063

>  <Genealogy>  (58) 
C[NH2+]C(Cc1c[nH]c2ccccc12)C(=O)O (protonated)
C[NH2+][C@@H](Cc1c[nH]c2ccccc12)C(=O)O (chirality)
C[NH2+][C@@H](Cc1c[nH]c2ccccc12)C(=O)O (3D coordinates assigned)
C[NH2+][C@@H](Cc1c[nH]c2ccccc12)C(=O)O (optimized conformer: 60.36288305888063 kcal/mol)

$$$$
untitled_line_58
     RDKit          3D

 58 64  0  0  0  0  0  0  0  0999 V2000
    0.4084    3.7234    3.1409 O   0  0  0  0  0  0  0  0  0  0  0  0
    1.1361    2.6973    3.2154 C   0  0  0  0  0  0  0  0  0  0  0  0
    2.5189    2.8239    3.1112 O   0  0  0  0  0  0  0  0  0  0  0  0
    0.4993    1.3317    3.3664 C   0  0  2  0  0  0  0  0  0  0  0  0
    1.3364    0.4336    4.3122 C   0  0  0  0  0  0  0  0  0  0  0  0
    0.5861   -0.8086    4.7099 C   0  0  0  0  0  0  0  0  0  0  0  0
   -0.4432   -0.8791    5.6445 C   0  0  0  0  0  0  0  0  0  0  0  0
   -0.9807   -2.1197    5.6650 N   0  0  0  0  0  0  0  0  0  0  0  0
   -0.3091   -2.8315    4.7437 C   0  0  0  0  0  0  0  0  0  0  0  0
   -0.5388   -4.1548    4.3687 C   0  0  0  0  0  0  0  0  0  0  0  0
    0.2564   -4.6953    3.3419 C   0  0  0  0  0  0  0  0  0  0  0  0
    1.2524   -3.9107    2.7207 C   0  0  0  0  0  0  0  0  0  0  0  0
    1.4624   -2.5789    3.1202 C   0  0  0  0  0  0  0  0  0  0  0  0
    0.6574   -2.0677    4.1397 C   0  0  0  0  0  0  0  0  0  0  0  0
    0.2353    0.6760    2.0528 N   0  0  0  0  0  4  0  0  0  0  0  0
   -0.8220    1.3332    1.3305 C   0  0  0  0  0  0  0  0  0  0  0  0
   -1.9425    1.4708    1.8006 O   0  0  0  0  0  0  0  0  0  0  0  0
   -0.4848    1.7686   -0.0630 C   0  0  2  0  0  0  0  0  0  0  0  0
   -1.3508    1.0368   -1.1463 C   0  0  0  0  0  0  0  0  0  0  0  0
   -0.7250    1.4205   -2.4780 C   0  0  0  0  0  0  0  0  0  0  0  0
   -1.3850    2.0797   -3.5180 C   0  0  0  0  0  0  0  0  0  0  0  0
   -0.6806    2.3790   -4.6923 C   0  0  0  0  0  0  0  0  0  0  0  0
    0.6722    2.0232   -4.8211 C   0  0  0  0  0  0  0  0  0  0  0  0
    1.3360    1.3638   -3.7771 C   0  0  0  0  0  0  0  0  0  0  0  0
    0.6341    1.0628   -2.6075 C   0  0  0  0  0  0  0  0  0  0  0  0
    1.2169    0.3598   -1.3917 C   0  0  0  0  0  0  0  0  0  0  0  0
    0.2817   -0.8125   -1.1228 C   0  0  0  0  0  0  0  0  0  0  0  0
    0.6911   -2.1291   -0.8964 C   0  0  0  0  0  0  0  0  0  0  0  0
   -0.2668   -3.0933   -0.5554 C   0  0  0  0  0  0  0  0  0  0  0  0
   -1.6197   -2.7382   -0.4305 C   0  0  0  0  0  0  0  0  0  0  0  0
   -2.0288   -1.4144   -0.6429 C   0  0  0  0  0  0  0  0  0  0  0  0
   -1.0758   -0.4547   -0.9929 C   0  0  0  0  0  0  0  0  0  0  0  0
    1.0253    1.3656   -0.2048 C   0  0  0  0  0  0  0  0  0  0  0  0
    1.3358    0.7453    1.1229 C   0  0  0  0  0  0  0  0  0  0  0  0
    2.4382    0.2837    1.3761 O   0  0  0  0  0  0  0  0  0  0  0  0
    2.9499    3.7322    2.9891 H   0  0  0  0  0  0  0  0  0  0  0  0
   -0.4719    1.4915    3.8908 H   0  0  0  0  0  0  0  0  0  0  0  0
    1.5689    1.0006    5.2402 H   0  0  0  0  0  0  0  0  0  0  0  0
    2.3084    0.1594    3.8555 H   0  0  0  0  0  0  0  0  0  0  0  0
   -0.7968   -0.0584    6.2548 H   0  0  0  0  0  0  0  0  0  0  0  0
   -1.7763   -2.4460    6.2574 H   0  0  0  0  0  0  0  0  0  0  0  0
   -1.3111   -4.7454    4.8442 H   0  0  0  0  0  0  0  0  0  0  0  0
    0.1009   -5.7177    3.0233 H   0  0  0  0  0  0  0  0  0  0  0  0
    1.8556   -4.3353    1.9289 H   0  0  0  0  0  0  0  0  0  0  0  0
    2.2229   -1.9773    2.6450 H   0  0  0  0  0  0  0  0  0  0  0  0
   -0.0461   -0.3227    2.1725 H   0  0  0  0  0  0  0  0  0  0  0  0
   -0.6053    2.8714   -0.1474 H   0  0  0  0  0  0  0  0  0  0  0  0
   -2.4308    1.2932   -1.0827 H   0  0  0  0  0  0  0  0  0  0  0  0
   -2.4269    2.3572   -3.4215 H   0  0  0  0  0  0  0  0  0  0  0  0
   -1.1822    2.8887   -5.5047 H   0  0  0  0  0  0  0  0  0  0  0  0
    1.2060    2.2605   -5.7322 H   0  0  0  0  0  0  0  0  0  0  0  0
    2.3789    1.0929   -3.8792 H   0  0  0  0  0  0  0  0  0  0  0  0
    2.2763    0.0529   -1.5320 H   0  0  0  0  0  0  0  0  0  0  0  0
    1.7366   -2.4004   -0.9651 H   0  0  0  0  0  0  0  0  0  0  0  0
    0.0400   -4.1151   -0.3738 H   0  0  0  0  0  0  0  0  0  0  0  0
   -2.3491   -3.4886   -0.1549 H   0  0  0  0  0  0  0  0  0  0  0  0
   -3.0679   -1.1386   -0.5194 H   0  0  0  0  0  0  0  0  0  0  0  0
    1.6596    2.2676   -0.3518 H   0  0  0  0  0  0  0  0  0  0  0  0
  1  2  2  0
  2  3  1  0
  2  4  1  0
  4  5  1  0
  5  6  1  0
  6  7  2  0
  7  8  1  0
  8  9  1  0
  9 10  2  0
 10 11  1  0
 11 12  2  0
 12 13  1  0
 13 14  2  0
  4 15  1  0
 15 16  1  0
 16 17  2  0
 16 18  1  0
 18 19  1  0
 19 20  1  0
 20 21  2  0
 21 22  1  0
 22 23  2  0
 23 24  1  0
 24 25  2  0
 25 26  1  0
 26 27  1  0
 27 28  2  0
 28 29  1  0
 29 30  2  0
 30 31  1  0
 31 32  2  0
 26 33  1  0
 33 34  1  0
 34 35  2  0
 14  6  1  0
 34 15  1  0
 14  9  1  0
 33 18  1  0
 32 19  1  0
 25 20  1  0
 32 27  1  0
  3 36  1  0
  4 37  1  1
  5 38  1  0
  5 39  1  0
  7 40  1  0
  8 41  1  0
 10 42  1  0
 11 43  1  0
 12 44  1  0
 13 45  1  0
 15 46  1  0
 18 47  1  1
 19 48  1  0
 21 49  1  0
 22 50  1  0
 23 51  1  0
 24 52  1  0
 26 53  1  0
 28 54  1  0
 29 55  1  0
 30 56  1  0
 31 57  1  0
 33 58  1  0
M  CHG  1  15   1
M  END
>  <UniqueID>  (59) 
58

>  <SMILES>  (59) 
O=C(O)[C@H](Cc1c[nH]c2ccccc12)[NH+]1C(=O)C2C3c4ccccc4C(c4ccccc43)[C@H]2C1=O

>  <Energy>  (59) 
133.2403535880125

>  <Genealogy>  (59) 
O=C(O)C(Cc1c[nH]c2ccccc12)[NH+]1C(=O)C2C3c4ccccc4C(c4ccccc43)C2C1=O (protonated)
O=C(O)[C@H](Cc1c[nH]c2ccccc12)[NH+]1C(=O)C2C3c4ccccc4C(c4ccccc43)[C@H]2C1=O (chirality)
O=C(O)[C@H](Cc1c[nH]c2ccccc12)[NH+]1C(=O)C2C3c4ccccc4C(c4ccccc43)[C@H]2C1=O (3D coordinates assigned)
O=C(O)[C@H](Cc1c[nH]c2ccccc12)[NH+]1C(=O)C2C3c4ccccc4C(c4ccccc43)[C@H]2C1=O (nonaromatic ring conformer: 133.2403535880125 kcal/mol)

$$$$
untitled_line_59
     RDKit          3D

 41 43  0  0  0  0  0  0  0  0999 V2000
   -1.3375   -0.6599   -1.9557 O   0  0  0  0  0  0  0  0  0  0  0  0
   -0.6337   -1.0738   -0.9957 C   0  0  0  0  0  0  0  0  0  0  0  0
    0.1387   -2.2218   -1.1675 O   0  0  0  0  0  0  0  0  0  0  0  0
   -0.6552   -0.3303    0.3270 C   0  0  2  0  0  0  0  0  0  0  0  0
    0.7777    0.1585    0.6742 C   0  0  0  0  0  0  0  0  0  0  0  0
    1.4042    0.9342   -0.4526 C   0  0  0  0  0  0  0  0  0  0  0  0
    1.0298    2.2028   -0.8875 C   0  0  0  0  0  0  0  0  0  0  0  0
    1.7907    2.5848   -1.9392 N   0  0  0  0  0  0  0  0  0  0  0  0
    2.6354    1.5651   -2.1768 C   0  0  0  0  0  0  0  0  0  0  0  0
    3.6055    1.4883   -3.1760 C   0  0  0  0  0  0  0  0  0  0  0  0
    4.3775    0.3152   -3.2536 C   0  0  0  0  0  0  0  0  0  0  0  0
    4.1617   -0.7459   -2.3460 C   0  0  0  0  0  0  0  0  0  0  0  0
    3.1778   -0.6403   -1.3461 C   0  0  0  0  0  0  0  0  0  0  0  0
    2.4282    0.5363   -1.2915 C   0  0  0  0  0  0  0  0  0  0  0  0
   -1.2493   -1.1834    1.4081 N   0  0  0  0  0  4  0  0  0  0  0  0
   -1.2394   -0.5624    2.7631 C   0  0  0  0  0  0  0  0  0  0  0  0
   -2.0339    0.7470    2.8528 C   0  0  0  0  0  0  0  0  0  0  0  0
   -3.7088    0.4777    2.3228 S   0  0  0  0  0  6  0  0  0  0  0  0
   -4.4875   -0.1867    3.4235 O   0  0  0  0  0  0  0  0  0  0  0  0
   -4.3523    1.7895    1.9731 O   0  0  0  0  0  0  0  0  0  0  0  0
   -3.6645   -0.5836    0.8971 C   0  0  0  0  0  0  0  0  0  0  0  0
   -2.6124   -1.6893    1.0812 C   0  0  0  0  0  0  0  0  0  0  0  0
    0.6983   -2.5978   -0.4111 H   0  0  0  0  0  0  0  0  0  0  0  0
   -1.2704    0.5844    0.1876 H   0  0  0  0  0  0  0  0  0  0  0  0
    0.7438    0.8496    1.5409 H   0  0  0  0  0  0  0  0  0  0  0  0
    1.4207   -0.7002    0.9583 H   0  0  0  0  0  0  0  0  0  0  0  0
    0.2404    2.8108   -0.4600 H   0  0  0  0  0  0  0  0  0  0  0  0
    1.7247    3.4858   -2.4635 H   0  0  0  0  0  0  0  0  0  0  0  0
    3.7588    2.3043   -3.8715 H   0  0  0  0  0  0  0  0  0  0  0  0
    5.1429    0.2232   -4.0146 H   0  0  0  0  0  0  0  0  0  0  0  0
    4.7587   -1.6474   -2.4223 H   0  0  0  0  0  0  0  0  0  0  0  0
    3.0092   -1.4539   -0.6519 H   0  0  0  0  0  0  0  0  0  0  0  0
   -0.6433   -2.0358    1.4994 H   0  0  0  0  0  0  0  0  0  0  0  0
   -1.6587   -1.2767    3.5060 H   0  0  0  0  0  0  0  0  0  0  0  0
   -0.1994   -0.3859    3.1105 H   0  0  0  0  0  0  0  0  0  0  0  0
   -1.5664    1.5410    2.2345 H   0  0  0  0  0  0  0  0  0  0  0  0
   -2.0430    1.1009    3.9054 H   0  0  0  0  0  0  0  0  0  0  0  0
   -3.4546    0.0129   -0.0143 H   0  0  0  0  0  0  0  0  0  0  0  0
   -4.6652   -1.0479    0.7670 H   0  0  0  0  0  0  0  0  0  0  0  0
   -2.5872   -2.3132    0.1602 H   0  0  0  0  0  0  0  0  0  0  0  0
   -2.9623   -2.3764    1.8861 H   0  0  0  0  0  0  0  0  0  0  0  0
  1  2  2  0
  2  3  1  0
  2  4  1  0
  4  5  1  0
  5  6  1  0
  6  7  2  0
  7  8  1  0
  8  9  1  0
  9 10  2  0
 10 11  1  0
 11 12  2  0
 12 13  1  0
 13 14  2  0
  4 15  1  0
 15 16  1  0
 16 17  1  0
 17 18  1  0
 18 19  2  0
 18 20  2  0
 18 21  1  0
 21 22  1  0
 14  6  1  0
 22 15  1  0
 14  9  1  0
  3 23  1  0
  4 24  1  6
  5 25  1  0
  5 26  1  0
  7 27  1  0
  8 28  1  0
 10 29  1  0
 11 30  1  0
 12 31  1  0
 13 32  1  0
 15 33  1  0
 16 34  1  0
 16 35  1  0
 17 36  1  0
 17 37  1  0
 21 38  1  0
 21 39  1  0
 22 40  1  0
 22 41  1  0
M  CHG  1  15   1
M  END
>  <UniqueID>  (60) 
59

>  <SMILES>  (60) 
O=C(O)[C@H](Cc1c[nH]c2ccccc12)[NH+]1CCS(=O)(=O)CC1

>  <Energy>  (60) 
75.97839424370761

>  <Genealogy>  (60) 
O=C(O)C(Cc1c[nH]c2ccccc12)[NH+]1CCS(=O)(=O)CC1 (protonated)
O=C(O)[C@H](Cc1c[nH]c2ccccc12)[NH+]1CCS(=O)(=O)CC1 (chirality)
O=C(O)[C@H](Cc1c[nH]c2ccccc12)[NH+]1CCS(=O)(=O)CC1 (3D coordinates assigned)
O=C(O)[C@H](Cc1c[nH]c2ccccc12)[NH+]1CCS(=O)(=O)CC1 (nonaromatic ring conformer: 75.97839424370761 kcal/mol)

$$$$
untitled_line_60
     RDKit          3D

 43 46  0  0  0  0  0  0  0  0999 V2000
    7.2767   -1.3818    0.2595 O   0  0  0  0  0  0  0  0  0  0  0  0
    6.3504   -0.8626   -0.4203 C   0  0  0  0  0  0  0  0  0  0  0  0
    6.6604   -0.2181   -1.6151 O   0  0  0  0  0  0  0  0  0  0  0  0
    4.9486   -0.9358    0.0447 C   0  0  0  0  0  0  0  0  0  0  0  0
    4.6249   -1.5916    1.2625 C   0  0  0  0  0  0  0  0  0  0  0  0
    3.2929   -1.6646    1.7063 C   0  0  0  0  0  0  0  0  0  0  0  0
    2.3080   -1.0730    0.9204 C   0  0  0  0  0  0  0  0  0  0  0  0
    2.6078   -0.4397   -0.2495 C   0  0  0  0  0  0  0  0  0  0  0  0
    3.9152   -0.3523   -0.7241 C   0  0  0  0  0  0  0  0  0  0  0  0
    1.3555    0.0419   -0.8128 C   0  0  0  0  0  0  0  0  0  0  0  0
    1.2558    0.5784   -1.9485 O   0  0  0  0  0  0  0  0  0  0  0  0
    0.2208   -0.2520    0.0366 N   0  0  2  0  0  4  0  0  0  0  0  0
   -0.4724    0.9578    0.5644 C   0  0  2  0  0  0  0  0  0  0  0  0
   -1.3055    1.6877   -0.5160 C   0  0  0  0  0  0  0  0  0  0  0  0
   -2.3741    0.8084   -1.0988 C   0  0  0  0  0  0  0  0  0  0  0  0
   -2.3278    0.1453   -2.3217 C   0  0  0  0  0  0  0  0  0  0  0  0
   -3.4417   -0.6020   -2.4957 N   0  0  0  0  0  0  0  0  0  0  0  0
   -4.1869   -0.4211   -1.3914 C   0  0  0  0  0  0  0  0  0  0  0  0
   -5.4234   -0.9970   -1.1027 C   0  0  0  0  0  0  0  0  0  0  0  0
   -6.0272   -0.6759    0.1269 C   0  0  0  0  0  0  0  0  0  0  0  0
   -5.3883    0.2024    1.0304 C   0  0  0  0  0  0  0  0  0  0  0  0
   -4.1400    0.7679    0.7128 C   0  0  0  0  0  0  0  0  0  0  0  0
   -3.5671    0.4316   -0.5141 C   0  0  0  0  0  0  0  0  0  0  0  0
    0.4790    1.9306    1.2313 C   0  0  0  0  0  0  0  0  0  0  0  0
    0.5991    1.9310    2.4859 O   0  0  0  0  0  0  0  0  0  0  0  0
    1.2496    2.8010    0.4647 O   0  0  0  0  0  0  0  0  0  0  0  0
    0.8669   -0.9888    1.0994 C   0  0  0  0  0  0  0  0  0  0  0  0
    0.2391   -1.5252    2.0520 O   0  0  0  0  0  0  0  0  0  0  0  0
    7.6173   -0.1619   -1.9430 H   0  0  0  0  0  0  0  0  0  0  0  0
    5.3995   -2.0469    1.8665 H   0  0  0  0  0  0  0  0  0  0  0  0
    3.0417   -2.1661    2.6319 H   0  0  0  0  0  0  0  0  0  0  0  0
    4.1188    0.1537   -1.6593 H   0  0  0  0  0  0  0  0  0  0  0  0
   -0.4362   -0.8971   -0.4593 H   0  0  0  0  0  0  0  0  0  0  0  0
   -1.1995    0.6291    1.3429 H   0  0  0  0  0  0  0  0  0  0  0  0
   -1.7987    2.5737   -0.0596 H   0  0  0  0  0  0  0  0  0  0  0  0
   -0.6554    2.0708   -1.3294 H   0  0  0  0  0  0  0  0  0  0  0  0
   -1.5181    0.1978   -3.0378 H   0  0  0  0  0  0  0  0  0  0  0  0
   -3.6681   -1.2042   -3.3182 H   0  0  0  0  0  0  0  0  0  0  0  0
   -5.9038   -1.6709   -1.8002 H   0  0  0  0  0  0  0  0  0  0  0  0
   -6.9870   -1.1055    0.3825 H   0  0  0  0  0  0  0  0  0  0  0  0
   -5.8620    0.4417    1.9735 H   0  0  0  0  0  0  0  0  0  0  0  0
   -3.6454    1.4417    1.4001 H   0  0  0  0  0  0  0  0  0  0  0  0
    1.9004    3.4417    0.9025 H   0  0  0  0  0  0  0  0  0  0  0  0
  1  2  2  0
  2  3  1  0
  2  4  1  0
  4  5  2  0
  5  6  1  0
  6  7  2  0
  7  8  1  0
  8  9  2  0
  8 10  1  0
 10 11  2  0
 10 12  1  0
 12 13  1  0
 13 14  1  0
 14 15  1  0
 15 16  2  0
 16 17  1  0
 17 18  1  0
 18 19  2  0
 19 20  1  0
 20 21  2  0
 21 22  1  0
 22 23  2  0
 13 24  1  0
 24 25  2  0
 24 26  1  0
 12 27  1  0
 27 28  2  0
  9  4  1  0
 23 15  1  0
 27  7  1  0
 23 18  1  0
  3 29  1  0
  5 30  1  0
  6 31  1  0
  9 32  1  0
 12 33  1  6
 13 34  1  1
 14 35  1  0
 14 36  1  0
 16 37  1  0
 17 38  1  0
 19 39  1  0
 20 40  1  0
 21 41  1  0
 22 42  1  0
 26 43  1  0
M  CHG  1  12   1
M  END
>  <UniqueID>  (61) 
60

>  <SMILES>  (61) 
O=C(O)c1ccc2c(c1)C(=O)[N@H+]([C@H](Cc1c[nH]c3ccccc13)C(=O)O)C2=O

>  <Energy>  (61) 
106.31019803621487

>  <Genealogy>  (61) 
O=C(O)c1ccc2c(c1)C(=O)[NH+]([C@H](Cc1c[nH]c3ccccc13)C(=O)O)C2=O (protonated)
O=C(O)c1ccc2c(c1)C(=O)[N@H+]([C@H](Cc1c[nH]c3ccccc13)C(=O)O)C2=O (chirality)
O=C(O)c1ccc2c(c1)C(=O)[N@H+]([C@H](Cc1c[nH]c3ccccc13)C(=O)O)C2=O (3D coordinates assigned)
O=C(O)c1ccc2c(c1)C(=O)[N@H+]([C@H](Cc1c[nH]c3ccccc13)C(=O)O)C2=O (nonaromatic ring conformer: 106.31019803621487 kcal/mol)

$$$$
untitled_line_61
     RDKit          3D

 41 44  0  0  0  0  0  0  0  0999 V2000
    1.5005   -2.9715    2.8808 O   0  0  0  0  0  0  0  0  0  0  0  0
    1.5912   -2.8937    1.6264 C   0  0  0  0  0  0  0  0  0  0  0  0
    2.6635   -3.5131    0.9897 O   0  0  0  0  0  0  0  0  0  0  0  0
    0.5618   -2.1175    0.8205 C   0  0  1  0  0  0  0  0  0  0  0  0
   -0.8574   -2.3014    1.4137 C   0  0  0  0  0  0  0  0  0  0  0  0
   -1.9205   -1.7365    0.5148 C   0  0  0  0  0  0  0  0  0  0  0  0
   -2.3521   -2.2780   -0.6926 C   0  0  0  0  0  0  0  0  0  0  0  0
   -3.2743   -1.4738   -1.2684 N   0  0  0  0  0  0  0  0  0  0  0  0
   -3.4238   -0.4264   -0.4392 C   0  0  0  0  0  0  0  0  0  0  0  0
   -4.2585    0.6764   -0.6151 C   0  0  0  0  0  0  0  0  0  0  0  0
   -4.2490    1.6734    0.3772 C   0  0  0  0  0  0  0  0  0  0  0  0
   -3.4147    1.5476    1.5098 C   0  0  0  0  0  0  0  0  0  0  0  0
   -2.5822    0.4239    1.6610 C   0  0  0  0  0  0  0  0  0  0  0  0
   -2.6129   -0.5490    0.6606 C   0  0  0  0  0  0  0  0  0  0  0  0
    0.9241   -0.6802    0.6496 N   0  0  1  0  0  4  0  0  0  0  0  0
    1.1107    0.0773    1.9247 C   0  0  0  0  0  0  0  0  0  0  0  0
    2.5331    0.5400    1.9216 C   0  0  0  0  0  0  0  0  0  0  0  0
    3.2125    1.2615    2.9051 C   0  0  0  0  0  0  0  0  0  0  0  0
    4.5565    1.6049    2.6752 C   0  0  0  0  0  0  0  0  0  0  0  0
    5.1908    1.2277    1.4736 C   0  0  0  0  0  0  0  0  0  0  0  0
    4.4836    0.5057    0.4976 C   0  0  0  0  0  0  0  0  0  0  0  0
    3.1535    0.1801    0.7615 C   0  0  0  0  0  0  0  0  0  0  0  0
    2.1886   -0.5355   -0.0272 C   0  0  0  0  0  0  0  0  0  0  0  0
    2.3995   -0.9494   -1.1994 O   0  0  0  0  0  0  0  0  0  0  0  0
    2.7727   -3.4775   -0.0164 H   0  0  0  0  0  0  0  0  0  0  0  0
    0.5313   -2.5909   -0.1881 H   0  0  0  0  0  0  0  0  0  0  0  0
   -0.9319   -1.8453    2.4220 H   0  0  0  0  0  0  0  0  0  0  0  0
   -1.0606   -3.3876    1.5381 H   0  0  0  0  0  0  0  0  0  0  0  0
   -2.0002   -3.2031   -1.1302 H   0  0  0  0  0  0  0  0  0  0  0  0
   -3.7603   -1.6324   -2.1789 H   0  0  0  0  0  0  0  0  0  0  0  0
   -4.8922    0.7654   -1.4880 H   0  0  0  0  0  0  0  0  0  0  0  0
   -4.8846    2.5428    0.2714 H   0  0  0  0  0  0  0  0  0  0  0  0
   -3.4156    2.3209    2.2669 H   0  0  0  0  0  0  0  0  0  0  0  0
   -1.9443    0.3240    2.5286 H   0  0  0  0  0  0  0  0  0  0  0  0
    0.2047   -0.1979    0.0614 H   0  0  0  0  0  0  0  0  0  0  0  0
    0.4428    0.9664    1.9484 H   0  0  0  0  0  0  0  0  0  0  0  0
    0.9175   -0.5282    2.8329 H   0  0  0  0  0  0  0  0  0  0  0  0
    2.7166    1.5506    3.8225 H   0  0  0  0  0  0  0  0  0  0  0  0
    5.1055    2.1627    3.4226 H   0  0  0  0  0  0  0  0  0  0  0  0
    6.2250    1.4960    1.3018 H   0  0  0  0  0  0  0  0  0  0  0  0
    4.9583    0.2111   -0.4293 H   0  0  0  0  0  0  0  0  0  0  0  0
  1  2  2  0
  2  3  1  0
  2  4  1  0
  4  5  1  0
  5  6  1  0
  6  7  2  0
  7  8  1  0
  8  9  1  0
  9 10  2  0
 10 11  1  0
 11 12  2  0
 12 13  1  0
 13 14  2  0
  4 15  1  0
 15 16  1  0
 16 17  1  0
 17 18  2  0
 18 19  1  0
 19 20  2  0
 20 21  1  0
 21 22  2  0
 22 23  1  0
 23 24  2  0
 14  6  1  0
 23 15  1  0
 14  9  1  0
 22 17  1  0
  3 25  1  0
  4 26  1  6
  5 27  1  0
  5 28  1  0
  7 29  1  0
  8 30  1  0
 10 31  1  0
 11 32  1  0
 12 33  1  0
 13 34  1  0
 15 35  1  6
 16 36  1  0
 16 37  1  0
 18 38  1  0
 19 39  1  0
 20 40  1  0
 21 41  1  0
M  CHG  1  15   1
M  END
>  <UniqueID>  (62) 
61

>  <SMILES>  (62) 
O=C(O)[C@@H](Cc1c[nH]c2ccccc12)[N@H+]1Cc2ccccc2C1=O

>  <Energy>  (62) 
98.10864278604312

>  <Genealogy>  (62) 
O=C(O)C(Cc1c[nH]c2ccccc12)[NH+]1Cc2ccccc2C1=O (protonated)
O=C(O)[C@@H](Cc1c[nH]c2ccccc12)[N@H+]1Cc2ccccc2C1=O (chirality)
O=C(O)[C@@H](Cc1c[nH]c2ccccc12)[N@H+]1Cc2ccccc2C1=O (3D coordinates assigned)
O=C(O)[C@@H](Cc1c[nH]c2ccccc12)[N@H+]1Cc2ccccc2C1=O (nonaromatic ring conformer: 98.10864278604312 kcal/mol)

$$$$
untitled_line_62
     RDKit          3D

 32 33  0  0  0  0  0  0  0  0999 V2000
   -1.2665   -2.0704    1.1118 C   0  0  0  0  0  0  0  0  0  0  0  0
   -1.4763   -0.9275    0.1732 C   0  0  0  0  0  0  0  0  0  0  0  0
   -1.8069   -1.1594   -1.0211 O   0  0  0  0  0  0  0  0  0  0  0  0
   -1.2472    0.4172    0.6201 N   0  0  0  0  0  0  0  0  0  0  0  0
   -1.2849    1.5740   -0.2807 C   0  0  2  0  0  0  0  0  0  0  0  0
    0.1418    2.0238   -0.6362 C   0  0  0  0  0  0  0  0  0  0  0  0
    0.8739    0.9589   -1.4009 C   0  0  0  0  0  0  0  0  0  0  0  0
    0.7734    0.7070   -2.7658 C   0  0  0  0  0  0  0  0  0  0  0  0
    1.4870   -0.3932   -3.0969 N   0  0  0  0  0  0  0  0  0  0  0  0
    2.0259   -0.8455   -1.9514 C   0  0  0  0  0  0  0  0  0  0  0  0
    2.8176   -1.9803   -1.7811 C   0  0  0  0  0  0  0  0  0  0  0  0
    3.2504   -2.2910   -0.4790 C   0  0  0  0  0  0  0  0  0  0  0  0
    2.8834   -1.4719    0.6116 C   0  0  0  0  0  0  0  0  0  0  0  0
    2.0818   -0.3338    0.4103 C   0  0  0  0  0  0  0  0  0  0  0  0
    1.6719   -0.0484   -0.8928 C   0  0  0  0  0  0  0  0  0  0  0  0
   -2.0300    2.6975    0.3812 C   0  0  0  0  0  0  0  0  0  0  0  0
   -3.0616    3.1769   -0.1612 O   0  0  0  0  0  0  0  0  0  0  0  0
   -1.5820    3.2141    1.5940 O   0  0  0  0  0  0  0  0  0  0  0  0
   -1.7830   -2.9795    0.7371 H   0  0  0  0  0  0  0  0  0  0  0  0
   -0.1805   -2.2803    1.2003 H   0  0  0  0  0  0  0  0  0  0  0  0
   -1.6731   -1.8172    2.1131 H   0  0  0  0  0  0  0  0  0  0  0  0
   -0.9090    0.5596    1.5994 H   0  0  0  0  0  0  0  0  0  0  0  0
   -1.8192    1.3130   -1.2219 H   0  0  0  0  0  0  0  0  0  0  0  0
    0.0961    2.9406   -1.2639 H   0  0  0  0  0  0  0  0  0  0  0  0
    0.7072    2.2782    0.2865 H   0  0  0  0  0  0  0  0  0  0  0  0
    0.1922    1.2851   -3.4724 H   0  0  0  0  0  0  0  0  0  0  0  0
    1.5786   -0.8158   -4.0474 H   0  0  0  0  0  0  0  0  0  0  0  0
    3.0863   -2.6068   -2.6218 H   0  0  0  0  0  0  0  0  0  0  0  0
    3.8649   -3.1659   -0.3116 H   0  0  0  0  0  0  0  0  0  0  0  0
    3.2175   -1.7237    1.6096 H   0  0  0  0  0  0  0  0  0  0  0  0
    1.7903    0.2914    1.2438 H   0  0  0  0  0  0  0  0  0  0  0  0
   -2.0753    3.9725    2.0496 H   0  0  0  0  0  0  0  0  0  0  0  0
  1  2  1  0
  2  3  2  0
  2  4  1  0
  4  5  1  0
  5  6  1  0
  6  7  1  0
  7  8  2  0
  8  9  1  0
  9 10  1  0
 10 11  2  0
 11 12  1  0
 12 13  2  0
 13 14  1  0
 14 15  2  0
  5 16  1  0
 16 17  2  0
 16 18  1  0
 15  7  1  0
 15 10  1  0
  1 19  1  0
  1 20  1  0
  1 21  1  0
  4 22  1  0
  5 23  1  6
  6 24  1  0
  6 25  1  0
  8 26  1  0
  9 27  1  0
 11 28  1  0
 12 29  1  0
 13 30  1  0
 14 31  1  0
 18 32  1  0
M  END
>  <UniqueID>  (63) 
62

>  <SMILES>  (63) 
CC(=O)N[C@H](Cc1c[nH]c2ccccc12)C(=O)O

>  <Energy>  (63) 
56.39960528681758

>  <Genealogy>  (63) 
CC(=O)N[C@H](Cc1c[nH]c2ccccc12)C(=O)O (chirality)
CC(=O)N[C@H](Cc1c[nH]c2ccccc12)C(=O)O (3D coordinates assigned)
CC(=O)N[C@H](Cc1c[nH]c2ccccc12)C(=O)O (optimized conformer: 56.39960528681758 kcal/mol)

$$$$
untitled_line_63
     RDKit          3D

 52 55  0  0  0  0  0  0  0  0999 V2000
    2.2895    0.1807   -1.5974 N   0  0  0  0  0  4  0  0  0  0  0  0
    2.0557   -1.0517   -0.8317 C   0  0  1  0  0  0  0  0  0  0  0  0
    2.6711   -0.9706    0.5808 C   0  0  0  0  0  0  0  0  0  0  0  0
    4.1702   -0.9012    0.5301 C   0  0  0  0  0  0  0  0  0  0  0  0
    5.0399   -1.9714    0.3430 C   0  0  0  0  0  0  0  0  0  0  0  0
    6.3193   -1.5362    0.2878 N   0  0  0  0  0  0  0  0  0  0  0  0
    6.2640   -0.2004    0.4285 C   0  0  0  0  0  0  0  0  0  0  0  0
    7.3331    0.6945    0.4187 C   0  0  0  0  0  0  0  0  0  0  0  0
    7.0458    2.0639    0.5645 C   0  0  0  0  0  0  0  0  0  0  0  0
    5.7115    2.5035    0.7119 C   0  0  0  0  0  0  0  0  0  0  0  0
    4.6522    1.5779    0.7167 C   0  0  0  0  0  0  0  0  0  0  0  0
    4.9684    0.2260    0.5748 C   0  0  0  0  0  0  0  0  0  0  0  0
    0.5767   -1.3406   -0.7390 C   0  0  0  0  0  0  0  0  0  0  0  0
    0.1295   -2.4194   -1.2154 O   0  0  0  0  0  0  0  0  0  0  0  0
   -0.3175   -0.4039   -0.1165 N   0  0  0  0  0  0  0  0  0  0  0  0
   -1.7633   -0.6376   -0.0478 C   0  0  1  0  0  0  0  0  0  0  0  0
   -2.4097    0.3125    0.9774 C   0  0  0  0  0  0  0  0  0  0  0  0
   -3.8552   -0.0249    1.2116 C   0  0  0  0  0  0  0  0  0  0  0  0
   -4.3431   -1.0281    2.0437 C   0  0  0  0  0  0  0  0  0  0  0  0
   -5.6902   -1.1051    1.9512 N   0  0  0  0  0  0  0  0  0  0  0  0
   -6.0557   -0.1677    1.0597 C   0  0  0  0  0  0  0  0  0  0  0  0
   -7.3464    0.1184    0.6167 C   0  0  0  0  0  0  0  0  0  0  0  0
   -7.5018    1.1334   -0.3450 C   0  0  0  0  0  0  0  0  0  0  0  0
   -6.3764    1.8297   -0.8388 C   0  0  0  0  0  0  0  0  0  0  0  0
   -5.0854    1.5188   -0.3747 C   0  0  0  0  0  0  0  0  0  0  0  0
   -4.9629    0.5102    0.5820 C   0  0  0  0  0  0  0  0  0  0  0  0
   -2.3739   -0.4504   -1.4093 C   0  0  0  0  0  0  0  0  0  0  0  0
   -2.0654    0.5490   -2.1133 O   0  0  0  0  0  0  0  0  0  0  0  0
   -3.3142   -1.3634   -1.8758 O   0  0  0  0  0  0  0  0  0  0  0  0
    1.9630    1.0204   -1.0665 H   0  0  0  0  0  0  0  0  0  0  0  0
    3.3088    0.2835   -1.8052 H   0  0  0  0  0  0  0  0  0  0  0  0
    1.7807    0.1342   -2.5105 H   0  0  0  0  0  0  0  0  0  0  0  0
    2.5388   -1.8988   -1.3720 H   0  0  0  0  0  0  0  0  0  0  0  0
    2.2732   -0.0917    1.1311 H   0  0  0  0  0  0  0  0  0  0  0  0
    2.3859   -1.8768    1.1591 H   0  0  0  0  0  0  0  0  0  0  0  0
    4.7500   -3.0092    0.2421 H   0  0  0  0  0  0  0  0  0  0  0  0
    7.1731   -2.1216    0.1503 H   0  0  0  0  0  0  0  0  0  0  0  0
    8.3518    0.3487    0.2997 H   0  0  0  0  0  0  0  0  0  0  0  0
    7.8524    2.7855    0.5608 H   0  0  0  0  0  0  0  0  0  0  0  0
    5.5023    3.5597    0.8204 H   0  0  0  0  0  0  0  0  0  0  0  0
    3.6284    1.9106    0.8251 H   0  0  0  0  0  0  0  0  0  0  0  0
    0.0760    0.4775    0.2842 H   0  0  0  0  0  0  0  0  0  0  0  0
   -1.9379   -1.6833    0.2916 H   0  0  0  0  0  0  0  0  0  0  0  0
   -1.8695    0.2244    1.9451 H   0  0  0  0  0  0  0  0  0  0  0  0
   -2.3137    1.3678    0.6414 H   0  0  0  0  0  0  0  0  0  0  0  0
   -3.7429   -1.6748    2.6705 H   0  0  0  0  0  0  0  0  0  0  0  0
   -6.3144   -1.7706    2.4589 H   0  0  0  0  0  0  0  0  0  0  0  0
   -8.2020   -0.4246    0.9967 H   0  0  0  0  0  0  0  0  0  0  0  0
   -8.4900    1.3803   -0.7106 H   0  0  0  0  0  0  0  0  0  0  0  0
   -6.5078    2.6068   -1.5804 H   0  0  0  0  0  0  0  0  0  0  0  0
   -4.2203    2.0473   -0.7524 H   0  0  0  0  0  0  0  0  0  0  0  0
   -3.7517   -1.2414   -2.7812 H   0  0  0  0  0  0  0  0  0  0  0  0
  1  2  1  0
  2  3  1  0
  3  4  1  0
  4  5  2  0
  5  6  1  0
  6  7  1  0
  7  8  2  0
  8  9  1  0
  9 10  2  0
 10 11  1  0
 11 12  2  0
  2 13  1  0
 13 14  2  0
 13 15  1  0
 15 16  1  0
 16 17  1  0
 17 18  1  0
 18 19  2  0
 19 20  1  0
 20 21  1  0
 21 22  2  0
 22 23  1  0
 23 24  2  0
 24 25  1  0
 25 26  2  0
 16 27  1  0
 27 28  2  0
 27 29  1  0
 12  4  1  0
 26 18  1  0
 12  7  1  0
 26 21  1  0
  1 30  1  0
  1 31  1  0
  1 32  1  0
  2 33  1  6
  3 34  1  0
  3 35  1  0
  5 36  1  0
  6 37  1  0
  8 38  1  0
  9 39  1  0
 10 40  1  0
 11 41  1  0
 15 42  1  0
 16 43  1  1
 17 44  1  0
 17 45  1  0
 19 46  1  0
 20 47  1  0
 22 48  1  0
 23 49  1  0
 24 50  1  0
 25 51  1  0
 29 52  1  0
M  CHG  1   1   1
M  END
>  <UniqueID>  (64) 
63

>  <SMILES>  (64) 
[NH3+][C@@H](Cc1c[nH]c2ccccc12)C(=O)N[C@@H](Cc1c[nH]c2ccccc12)C(=O)O

>  <Energy>  (64) 
112.7383751959441

>  <Genealogy>  (64) 
[NH3+][C@@H](Cc1c[nH]c2ccccc12)C(=O)N[C@@H](Cc1c[nH]c2ccccc12)C(=O)O (protonated)
[NH3+][C@@H](Cc1c[nH]c2ccccc12)C(=O)N[C@@H](Cc1c[nH]c2ccccc12)C(=O)O (3D coordinates assigned)
[NH3+][C@@H](Cc1c[nH]c2ccccc12)C(=O)N[C@@H](Cc1c[nH]c2ccccc12)C(=O)O (optimized conformer: 112.7383751959441 kcal/mol)

$$$$
untitled_line_64
     RDKit          3D

 49 52  0  0  0  0  0  0  0  0999 V2000
   -0.1553    0.9836   -2.3169 O   0  0  0  0  0  0  0  0  0  0  0  0
    0.5722    0.6771   -1.3322 C   0  0  0  0  0  0  0  0  0  0  0  0
    1.9911    1.1624   -1.2825 C   0  0  0  0  0  0  0  0  0  0  0  0
    2.0903    2.5602   -0.6616 C   0  0  0  0  0  0  0  0  0  0  0  0
    1.6294    2.5643    0.7689 C   0  0  0  0  0  0  0  0  0  0  0  0
    2.3609    2.1332    1.8703 C   0  0  0  0  0  0  0  0  0  0  0  0
    1.5916    2.1366    2.9809 N   0  0  0  0  0  0  0  0  0  0  0  0
    0.3779    2.5563    2.5885 C   0  0  0  0  0  0  0  0  0  0  0  0
   -0.7606    2.6950    3.3811 C   0  0  0  0  0  0  0  0  0  0  0  0
   -1.9462    3.1205    2.7572 C   0  0  0  0  0  0  0  0  0  0  0  0
   -1.9694    3.3852    1.3676 C   0  0  0  0  0  0  0  0  0  0  0  0
   -0.8035    3.2387    0.5943 C   0  0  0  0  0  0  0  0  0  0  0  0
    0.3602    2.8266    1.2451 C   0  0  0  0  0  0  0  0  0  0  0  0
    0.0364   -0.0787   -0.2349 N   0  0  0  0  0  0  0  0  0  0  0  0
   -1.3058   -0.6676   -0.2503 C   0  0  1  0  0  0  0  0  0  0  0  0
   -1.2168   -2.1798   -0.5193 C   0  0  0  0  0  0  0  0  0  0  0  0
   -0.6389   -2.4500   -1.8772 C   0  0  0  0  0  0  0  0  0  0  0  0
   -1.3281   -2.4139   -3.0861 C   0  0  0  0  0  0  0  0  0  0  0  0
   -0.4723   -2.5556   -4.1233 N   0  0  0  0  0  0  0  0  0  0  0  0
    0.7527   -2.6704   -3.5803 C   0  0  0  0  0  0  0  0  0  0  0  0
    1.9658   -2.8044   -4.2551 C   0  0  0  0  0  0  0  0  0  0  0  0
    3.1413   -2.8708   -3.4869 C   0  0  0  0  0  0  0  0  0  0  0  0
    3.0802   -2.7949   -2.0785 C   0  0  0  0  0  0  0  0  0  0  0  0
    1.8426   -2.6574   -1.4239 C   0  0  0  0  0  0  0  0  0  0  0  0
    0.6929   -2.6065   -2.2114 C   0  0  0  0  0  0  0  0  0  0  0  0
   -1.9788   -0.4092    1.0699 C   0  0  0  0  0  0  0  0  0  0  0  0
   -3.0271    0.2920    1.1189 O   0  0  0  0  0  0  0  0  0  0  0  0
   -1.4431   -0.9337    2.2430 O   0  0  0  0  0  0  0  0  0  0  0  0
    2.6146    0.4471   -0.7042 H   0  0  0  0  0  0  0  0  0  0  0  0
    2.3999    1.1963   -2.3153 H   0  0  0  0  0  0  0  0  0  0  0  0
    1.4997    3.2813   -1.2602 H   0  0  0  0  0  0  0  0  0  0  0  0
    3.1490    2.8931   -0.6952 H   0  0  0  0  0  0  0  0  0  0  0  0
    3.3922    1.8036    1.8505 H   0  0  0  0  0  0  0  0  0  0  0  0
    1.8816    1.8512    3.9413 H   0  0  0  0  0  0  0  0  0  0  0  0
   -0.7364    2.4815    4.4417 H   0  0  0  0  0  0  0  0  0  0  0  0
   -2.8478    3.2397    3.3423 H   0  0  0  0  0  0  0  0  0  0  0  0
   -2.8876    3.7057    0.8940 H   0  0  0  0  0  0  0  0  0  0  0  0
   -0.8176    3.4332   -0.4722 H   0  0  0  0  0  0  0  0  0  0  0  0
    0.6667   -0.3017    0.5693 H   0  0  0  0  0  0  0  0  0  0  0  0
   -1.9246   -0.2008   -1.0524 H   0  0  0  0  0  0  0  0  0  0  0  0
   -2.2351   -2.6246   -0.4709 H   0  0  0  0  0  0  0  0  0  0  0  0
   -0.5950   -2.6753    0.2574 H   0  0  0  0  0  0  0  0  0  0  0  0
   -2.3923   -2.2556   -3.1986 H   0  0  0  0  0  0  0  0  0  0  0  0
   -0.7165   -2.5437   -5.1389 H   0  0  0  0  0  0  0  0  0  0  0  0
    2.0058   -2.8555   -5.3370 H   0  0  0  0  0  0  0  0  0  0  0  0
    4.0996   -2.9764   -3.9800 H   0  0  0  0  0  0  0  0  0  0  0  0
    3.9921   -2.8380   -1.4974 H   0  0  0  0  0  0  0  0  0  0  0  0
    1.7901   -2.5832   -0.3435 H   0  0  0  0  0  0  0  0  0  0  0  0
   -1.8788   -0.7498    3.1433 H   0  0  0  0  0  0  0  0  0  0  0  0
  1  2  2  0
  2  3  1  0
  3  4  1  0
  4  5  1  0
  5  6  2  0
  6  7  1  0
  7  8  1  0
  8  9  2  0
  9 10  1  0
 10 11  2  0
 11 12  1  0
 12 13  2  0
  2 14  1  0
 14 15  1  0
 15 16  1  0
 16 17  1  0
 17 18  2  0
 18 19  1  0
 19 20  1  0
 20 21  2  0
 21 22  1  0
 22 23  2  0
 23 24  1  0
 24 25  2  0
 15 26  1  0
 26 27  2  0
 26 28  1  0
 13  5  1  0
 25 17  1  0
 13  8  1  0
 25 20  1  0
  3 29  1  0
  3 30  1  0
  4 31  1  0
  4 32  1  0
  6 33  1  0
  7 34  1  0
  9 35  1  0
 10 36  1  0
 11 37  1  0
 12 38  1  0
 14 39  1  0
 15 40  1  6
 16 41  1  0
 16 42  1  0
 18 43  1  0
 19 44  1  0
 21 45  1  0
 22 46  1  0
 23 47  1  0
 24 48  1  0
 28 49  1  0
M  END
>  <UniqueID>  (65) 
64

>  <SMILES>  (65) 
O=C(CCc1c[nH]c2ccccc12)N[C@@H](Cc1c[nH]c2ccccc12)C(=O)O

>  <Energy>  (65) 
104.41335623326076

>  <Genealogy>  (65) 
O=C(CCc1c[nH]c2ccccc12)N[C@@H](Cc1c[nH]c2ccccc12)C(=O)O (chirality)
O=C(CCc1c[nH]c2ccccc12)N[C@@H](Cc1c[nH]c2ccccc12)C(=O)O (3D coordinates assigned)
O=C(CCc1c[nH]c2ccccc12)N[C@@H](Cc1c[nH]c2ccccc12)C(=O)O (optimized conformer: 104.41335623326076 kcal/mol)

$$$$
untitled_line_65
     RDKit          3D

 40 41  0  0  0  0  0  0  0  0999 V2000
    0.9544   -3.4727    0.6043 H   0  0  0  0  0  0  0  0  0  0  0  0
    0.8576   -2.8448    1.3923 O   0  0  0  0  0  0  0  0  0  0  0  0
    0.5925   -1.4880    1.2202 C   0  0  0  0  0  0  0  0  0  0  0  0
    0.4828   -0.7519    2.2359 O   0  0  0  0  0  0  0  0  0  0  0  0
    0.4360   -0.8849   -0.1612 C   0  0  2  0  0  0  0  0  0  0  0  0
    0.2061    0.2002   -0.0496 H   0  0  0  0  0  0  0  0  0  0  0  0
   -0.7553   -1.5248   -0.9062 C   0  0  0  0  0  0  0  0  0  0  0  0
   -0.8315   -1.0903   -1.9262 H   0  0  0  0  0  0  0  0  0  0  0  0
   -0.5954   -2.6176   -1.0285 H   0  0  0  0  0  0  0  0  0  0  0  0
   -2.0541   -1.2817   -0.1917 C   0  0  0  0  0  0  0  0  0  0  0  0
   -2.7070   -2.1617    0.6664 C   0  0  0  0  0  0  0  0  0  0  0  0
   -2.3822   -3.1656    0.9072 H   0  0  0  0  0  0  0  0  0  0  0  0
   -3.8130   -1.5809    1.1854 N   0  0  0  0  0  0  0  0  0  0  0  0
   -4.4852   -2.0086    1.8604 H   0  0  0  0  0  0  0  0  0  0  0  0
   -3.8573   -0.3395    0.6708 C   0  0  0  0  0  0  0  0  0  0  0  0
   -4.8076    0.6481    0.9265 C   0  0  0  0  0  0  0  0  0  0  0  0
   -5.6391    0.4656    1.5949 H   0  0  0  0  0  0  0  0  0  0  0  0
   -4.6494    1.8931    0.2903 C   0  0  0  0  0  0  0  0  0  0  0  0
   -5.3690    2.6819    0.4670 H   0  0  0  0  0  0  0  0  0  0  0  0
   -3.5558    2.1214   -0.5745 C   0  0  0  0  0  0  0  0  0  0  0  0
   -3.4429    3.0839   -1.0562 H   0  0  0  0  0  0  0  0  0  0  0  0
   -2.6111    1.1066   -0.8123 C   0  0  0  0  0  0  0  0  0  0  0  0
   -1.7692    1.2754   -1.4711 H   0  0  0  0  0  0  0  0  0  0  0  0
   -2.7975   -0.1182   -0.1709 C   0  0  0  0  0  0  0  0  0  0  0  0
    1.6764   -1.0332   -0.9534 N   0  0  0  0  0  4  0  0  0  0  0  0
    1.9164   -2.0468   -1.0511 H   0  0  0  0  0  0  0  0  0  0  0  0
    1.5214   -0.6719   -1.9246 H   0  0  0  0  0  0  0  0  0  0  0  0
    2.7793   -0.3037   -0.3603 C   0  0  0  0  0  0  0  0  0  0  0  0
    2.8301    1.0409   -0.5019 C   0  0  0  0  0  0  0  0  0  0  0  0
    2.0315    1.5182   -1.0584 H   0  0  0  0  0  0  0  0  0  0  0  0
    3.8754    1.9462    0.0332 C   0  0  0  0  0  0  0  0  0  0  0  0
    4.8693    1.5110    0.6735 O   0  0  0  0  0  0  0  0  0  0  0  0
    3.7521    3.4177   -0.2017 C   0  0  0  0  0  0  0  0  0  0  0  0
    3.7856    3.6254   -1.2917 H   0  0  0  0  0  0  0  0  0  0  0  0
    4.5828    3.9648    0.2930 H   0  0  0  0  0  0  0  0  0  0  0  0
    2.7885    3.7833    0.2111 H   0  0  0  0  0  0  0  0  0  0  0  0
    3.8436   -1.0720    0.3850 C   0  0  0  0  0  0  0  0  0  0  0  0
    3.6190   -2.1585    0.4038 H   0  0  0  0  0  0  0  0  0  0  0  0
    4.8282   -0.9390   -0.1104 H   0  0  0  0  0  0  0  0  0  0  0  0
    3.8934   -0.7273    1.4392 H   0  0  0  0  0  0  0  0  0  0  0  0
  1  2  1  0
  2  3  1  0
  3  4  2  0
  3  5  1  0
  5  6  1  1
  5  7  1  0
  7  8  1  0
  7  9  1  0
  7 10  1  0
 10 11  2  0
 11 12  1  0
 11 13  1  0
 13 14  1  0
 13 15  1  0
 15 16  2  0
 16 17  1  0
 16 18  1  0
 18 19  1  0
 18 20  2  0
 20 21  1  0
 20 22  1  0
 22 23  1  0
 22 24  2  0
  5 25  1  0
 25 26  1  0
 25 27  1  0
 25 28  1  0
 28 29  2  0
 29 30  1  0
 29 31  1  0
 31 32  2  0
 31 33  1  0
 33 34  1  0
 33 35  1  0
 33 36  1  0
 28 37  1  0
 37 38  1  0
 37 39  1  0
 37 40  1  0
 24 10  1  0
 24 15  1  0
M  CHG  1  25   1
M  END
>  <UniqueID>  (66) 
65

>  <SMILES>  (66) 
CC(=O)/C=C(/C)[NH2+][C@@H](Cc1c[nH]c2ccccc12)C(=O)O

>  <Energy>  (66) 
69.8156028385397

>  <Genealogy>  (66) 
CC(=O)/C=C(/C)[NH2+]C(Cc1c[nH]c2ccccc12)C(=O)O (protonated)
CC(=O)/C=C(/C)[NH2+][C@@H](Cc1c[nH]c2ccccc12)C(=O)O (chirality)
CC(=O)/C=C(/C)[NH2+][C@@H](Cc1c[nH]c2ccccc12)C(=O)O (cis-trans isomerization)
CC(=O)/C=C(/C)[NH2+][C@@H](Cc1c[nH]c2ccccc12)C(=O)O (3D coordinates assigned)
CC(=O)/C=C(/C)[NH2+][C@@H](Cc1c[nH]c2ccccc12)C(=O)O (optimized conformer: 69.8156028385397 kcal/mol)

$$$$
untitled_line_66
     RDKit          3D

 42 45  0  0  0  0  0  0  0  0999 V2000
    0.2052    1.1510   -0.6542 O   0  0  0  0  0  0  0  0  0  0  0  0
   -0.0135   -0.0876   -0.7404 C   0  0  0  0  0  0  0  0  0  0  0  0
   -0.0877   -0.6886   -1.9929 O   0  0  0  0  0  0  0  0  0  0  0  0
   -0.1729   -0.9351    0.5074 C   0  0  2  0  0  0  0  0  0  0  0  0
   -1.2459   -0.3497    1.4561 C   0  0  0  0  0  0  0  0  0  0  0  0
   -2.6187   -0.4232    0.8476 C   0  0  0  0  0  0  0  0  0  0  0  0
   -3.4151   -1.5606    0.7494 C   0  0  0  0  0  0  0  0  0  0  0  0
   -4.5575   -1.2818    0.0817 N   0  0  0  0  0  0  0  0  0  0  0  0
   -4.4862    0.0189   -0.2499 C   0  0  0  0  0  0  0  0  0  0  0  0
   -5.4282    0.7608   -0.9613 C   0  0  0  0  0  0  0  0  0  0  0  0
   -5.1455    2.1159   -1.2114 C   0  0  0  0  0  0  0  0  0  0  0  0
   -3.9412    2.6923   -0.7508 C   0  0  0  0  0  0  0  0  0  0  0  0
   -3.0082    1.9194   -0.0361 C   0  0  0  0  0  0  0  0  0  0  0  0
   -3.3156    0.5780    0.1971 C   0  0  0  0  0  0  0  0  0  0  0  0
    1.1156   -1.1709    1.2154 N   0  0  0  0  0  4  0  0  0  0  0  0
    2.0634   -1.8580    0.3640 C   0  0  0  0  0  0  0  0  0  0  0  0
    1.8669   -3.0174   -0.0910 O   0  0  0  0  0  0  0  0  0  0  0  0
    3.2674   -1.0799    0.1135 C   0  0  0  0  0  0  0  0  0  0  0  0
    4.3107   -1.3252   -0.6767 C   0  0  0  0  0  0  0  0  0  0  0  0
    5.3347   -0.2294   -0.8835 C   0  0  0  0  0  0  0  0  0  0  0  0
    5.4356    0.7462    0.3238 C   0  0  0  0  0  0  0  0  0  0  0  0
    4.0955    1.0388    0.9653 C   0  0  0  0  0  0  0  0  0  0  0  0
    3.1326    0.1229    0.8778 C   0  0  0  0  0  0  0  0  0  0  0  0
    1.8389    0.0420    1.5408 C   0  0  0  0  0  0  0  0  0  0  0  0
    1.4276    0.8896    2.3781 O   0  0  0  0  0  0  0  0  0  0  0  0
    0.0241   -0.1422   -2.8385 H   0  0  0  0  0  0  0  0  0  0  0  0
   -0.5599   -1.9282    0.1797 H   0  0  0  0  0  0  0  0  0  0  0  0
   -1.2584   -0.9304    2.4035 H   0  0  0  0  0  0  0  0  0  0  0  0
   -1.0122    0.7024    1.7193 H   0  0  0  0  0  0  0  0  0  0  0  0
   -3.1646   -2.5405    1.1345 H   0  0  0  0  0  0  0  0  0  0  0  0
   -5.3303   -1.9482   -0.1398 H   0  0  0  0  0  0  0  0  0  0  0  0
   -6.3472    0.3095   -1.3124 H   0  0  0  0  0  0  0  0  0  0  0  0
   -5.8554    2.7203   -1.7609 H   0  0  0  0  0  0  0  0  0  0  0  0
   -3.7346    3.7360   -0.9488 H   0  0  0  0  0  0  0  0  0  0  0  0
   -2.0866    2.3593    0.3203 H   0  0  0  0  0  0  0  0  0  0  0  0
    0.9728   -1.7380    2.0838 H   0  0  0  0  0  0  0  0  0  0  0  0
    4.3547   -2.2327   -1.2652 H   0  0  0  0  0  0  0  0  0  0  0  0
    6.3291   -0.6855   -1.0755 H   0  0  0  0  0  0  0  0  0  0  0  0
    5.0433    0.3467   -1.7879 H   0  0  0  0  0  0  0  0  0  0  0  0
    6.0951    0.2955    1.0963 H   0  0  0  0  0  0  0  0  0  0  0  0
    5.9008    1.6986   -0.0079 H   0  0  0  0  0  0  0  0  0  0  0  0
    3.9714    1.9090    1.5971 H   0  0  0  0  0  0  0  0  0  0  0  0
  1  2  2  0
  2  3  1  0
  2  4  1  0
  4  5  1  0
  5  6  1  0
  6  7  2  0
  7  8  1  0
  8  9  1  0
  9 10  2  0
 10 11  1  0
 11 12  2  0
 12 13  1  0
 13 14  2  0
  4 15  1  0
 15 16  1  0
 16 17  2  0
 16 18  1  0
 18 19  2  0
 19 20  1  0
 20 21  1  0
 21 22  1  0
 22 23  2  0
 23 24  1  0
 24 25  2  0
 14  6  1  0
 24 15  1  0
 14  9  1  0
 23 18  1  0
  3 26  1  0
  4 27  1  6
  5 28  1  0
  5 29  1  0
  7 30  1  0
  8 31  1  0
 10 32  1  0
 11 33  1  0
 12 34  1  0
 13 35  1  0
 15 36  1  0
 19 37  1  0
 20 38  1  0
 20 39  1  0
 21 40  1  0
 21 41  1  0
 22 42  1  0
M  CHG  1  15   1
M  END
>  <UniqueID>  (67) 
66

>  <SMILES>  (67) 
O=C(O)[C@H](Cc1c[nH]c2ccccc12)[NH+]1C(=O)C2=CCCC=C2C1=O

>  <Energy>  (67) 
104.83845752903252

>  <Genealogy>  (67) 
O=C(O)[C@H](Cc1c[nH]c2ccccc12)[NH+]1C(=O)C2=CCCC=C2C1=O (protonated)
O=C(O)[C@H](Cc1c[nH]c2ccccc12)[NH+]1C(=O)C2=CCCC=C2C1=O (3D coordinates assigned)
O=C(O)[C@H](Cc1c[nH]c2ccccc12)[NH+]1C(=O)C2=CCCC=C2C1=O (nonaromatic ring conformer: 104.83845752903252 kcal/mol)

$$$$
untitled_line_67
     RDKit          3D

 31 32  0  0  0  0  0  0  0  0999 V2000
   -0.2459   -1.7013    1.8957 C   0  0  0  0  0  0  0  0  0  0  0  0
    0.4025   -0.8468    0.8934 N   0  0  0  0  0  4  0  0  0  0  0  0
   -0.0465   -1.1638   -0.4812 C   0  0  1  0  0  0  0  0  0  0  0  0
    0.4928   -0.1315   -1.4955 C   0  0  0  0  0  0  0  0  0  0  0  0
   -0.1375    1.2193   -1.3120 C   0  0  0  0  0  0  0  0  0  0  0  0
    0.4292    2.3227   -0.6804 C   0  0  0  0  0  0  0  0  0  0  0  0
   -0.4447    3.3550   -0.6599 N   0  0  0  0  0  0  0  0  0  0  0  0
   -1.5587    2.9111   -1.2677 C   0  0  0  0  0  0  0  0  0  0  0  0
   -2.7436    3.6148   -1.4795 C   0  0  0  0  0  0  0  0  0  0  0  0
   -3.7961    2.9484   -2.1336 C   0  0  0  0  0  0  0  0  0  0  0  0
   -3.6429    1.6088   -2.5554 C   0  0  0  0  0  0  0  0  0  0  0  0
   -2.4358    0.9232   -2.3273 C   0  0  0  0  0  0  0  0  0  0  0  0
   -1.4104    1.6108   -1.6777 C   0  0  0  0  0  0  0  0  0  0  0  0
    0.4023   -2.5433   -0.8963 C   0  0  0  0  0  0  0  0  0  0  0  0
    1.6275   -2.8410   -0.9020 O   0  0  0  0  0  0  0  0  0  0  0  0
   -0.5419   -3.4900   -1.2813 O   0  0  0  0  0  0  0  0  0  0  0  0
   -1.3527   -1.6174    1.8278 H   0  0  0  0  0  0  0  0  0  0  0  0
    0.0633   -1.3826    2.9147 H   0  0  0  0  0  0  0  0  0  0  0  0
    0.0540   -2.7635    1.7654 H   0  0  0  0  0  0  0  0  0  0  0  0
    0.1556    0.1428    1.1256 H   0  0  0  0  0  0  0  0  0  0  0  0
    1.4413   -0.9520    0.9730 H   0  0  0  0  0  0  0  0  0  0  0  0
   -1.1597   -1.1370   -0.5231 H   0  0  0  0  0  0  0  0  0  0  0  0
    1.5971   -0.0433   -1.3975 H   0  0  0  0  0  0  0  0  0  0  0  0
    0.2774   -0.4743   -2.5315 H   0  0  0  0  0  0  0  0  0  0  0  0
    1.4219    2.3631   -0.2513 H   0  0  0  0  0  0  0  0  0  0  0  0
   -0.2852    4.3006   -0.2467 H   0  0  0  0  0  0  0  0  0  0  0  0
   -2.8524    4.6402   -1.1507 H   0  0  0  0  0  0  0  0  0  0  0  0
   -4.7296    3.4654   -2.3139 H   0  0  0  0  0  0  0  0  0  0  0  0
   -4.4595    1.1061   -3.0569 H   0  0  0  0  0  0  0  0  0  0  0  0
   -2.3114   -0.1032   -2.6472 H   0  0  0  0  0  0  0  0  0  0  0  0
   -0.2589   -4.4205   -1.5645 H   0  0  0  0  0  0  0  0  0  0  0  0
  1  2  1  0
  2  3  1  0
  3  4  1  0
  4  5  1  0
  5  6  2  0
  6  7  1  0
  7  8  1  0
  8  9  2  0
  9 10  1  0
 10 11  2  0
 11 12  1  0
 12 13  2  0
  3 14  1  0
 14 15  2  0
 14 16  1  0
 13  5  1  0
 13  8  1  0
  1 17  1  0
  1 18  1  0
  1 19  1  0
  2 20  1  0
  2 21  1  0
  3 22  1  1
  4 23  1  0
  4 24  1  0
  6 25  1  0
  7 26  1  0
  9 27  1  0
 10 28  1  0
 11 29  1  0
 12 30  1  0
 16 31  1  0
M  CHG  1   2   1
M  END
>  <UniqueID>  (68) 
67

>  <SMILES>  (68) 
C[NH2+][C@@H](Cc1c[nH]c2ccccc12)C(=O)O

>  <Energy>  (68) 
60.758984829785895

>  <Genealogy>  (68) 
C[NH2+][C@@H](Cc1c[nH]c2ccccc12)C(=O)O (protonated)
C[NH2+][C@@H](Cc1c[nH]c2ccccc12)C(=O)O (3D coordinates assigned)
C[NH2+][C@@H](Cc1c[nH]c2ccccc12)C(=O)O (optimized conformer: 60.758984829785895 kcal/mol)

$$$$
untitled_line_68
     RDKit          3D

 40 42  0  0  0  0  0  0  0  0999 V2000
    2.5659   -0.7149    0.3072 O   0  0  0  0  0  0  0  0  0  0  0  0
    2.1815   -0.2967    1.4312 C   0  0  0  0  0  0  0  0  0  0  0  0
    2.9909   -0.4974    2.5464 O   0  0  0  0  0  0  0  0  0  0  0  0
    0.8449    0.3890    1.5583 C   0  0  1  0  0  0  0  0  0  0  0  0
   -0.1598   -0.5400    2.2711 C   0  0  0  0  0  0  0  0  0  0  0  0
   -0.4927   -1.7363    1.4261 C   0  0  0  0  0  0  0  0  0  0  0  0
    0.0162   -3.0236    1.5672 C   0  0  0  0  0  0  0  0  0  0  0  0
   -0.4433   -3.8229    0.5771 N   0  0  0  0  0  0  0  0  0  0  0  0
   -1.2274   -3.0482   -0.1931 C   0  0  0  0  0  0  0  0  0  0  0  0
   -1.9046   -3.4196   -1.3539 C   0  0  0  0  0  0  0  0  0  0  0  0
   -2.6512   -2.4328   -2.0241 C   0  0  0  0  0  0  0  0  0  0  0  0
   -2.7012   -1.1114   -1.5266 C   0  0  0  0  0  0  0  0  0  0  0  0
   -2.0074   -0.7652   -0.3531 C   0  0  0  0  0  0  0  0  0  0  0  0
   -1.2795   -1.7666    0.2913 C   0  0  0  0  0  0  0  0  0  0  0  0
    0.9985    1.6513    2.3026 N   0  0  0  0  0  0  0  0  0  0  0  0
    1.6433    2.9029    1.2764 S   0  0  0  0  0  6  0  0  0  0  0  0
    3.0326    2.5350    0.8347 O   0  0  0  0  0  0  0  0  0  0  0  0
    1.7158    4.1888    2.0507 O   0  0  0  0  0  0  0  0  0  0  0  0
    0.5987    3.1388   -0.1247 C   0  0  0  0  0  0  0  0  0  0  0  0
    1.0126    2.7322   -1.4025 C   0  0  0  0  0  0  0  0  0  0  0  0
    0.1522    2.8716   -2.4961 C   0  0  0  0  0  0  0  0  0  0  0  0
   -1.1241    3.4134   -2.3187 C   0  0  0  0  0  0  0  0  0  0  0  0
   -1.5417    3.8165   -1.0471 C   0  0  0  0  0  0  0  0  0  0  0  0
   -0.6836    3.6782    0.0483 C   0  0  0  0  0  0  0  0  0  0  0  0
    2.7075   -0.1813    3.4659 H   0  0  0  0  0  0  0  0  0  0  0  0
    0.4424    0.5933    0.5420 H   0  0  0  0  0  0  0  0  0  0  0  0
    0.2449   -0.8687    3.2532 H   0  0  0  0  0  0  0  0  0  0  0  0
   -1.1053    0.0090    2.4702 H   0  0  0  0  0  0  0  0  0  0  0  0
    0.6975   -3.3515    2.3415 H   0  0  0  0  0  0  0  0  0  0  0  0
   -0.2169   -4.8321    0.4331 H   0  0  0  0  0  0  0  0  0  0  0  0
   -1.8542   -4.4326   -1.7317 H   0  0  0  0  0  0  0  0  0  0  0  0
   -3.1876   -2.6872   -2.9289 H   0  0  0  0  0  0  0  0  0  0  0  0
   -3.2749   -0.3596   -2.0526 H   0  0  0  0  0  0  0  0  0  0  0  0
   -2.0379    0.2465    0.0309 H   0  0  0  0  0  0  0  0  0  0  0  0
    0.0551    1.9931    2.5983 H   0  0  0  0  0  0  0  0  0  0  0  0
    1.9917    2.2963   -1.5518 H   0  0  0  0  0  0  0  0  0  0  0  0
    0.4727    2.5544   -3.4800 H   0  0  0  0  0  0  0  0  0  0  0  0
   -1.7902    3.5177   -3.1654 H   0  0  0  0  0  0  0  0  0  0  0  0
   -2.5319    4.2312   -0.9094 H   0  0  0  0  0  0  0  0  0  0  0  0
   -1.0211    3.9811    1.0314 H   0  0  0  0  0  0  0  0  0  0  0  0
  1  2  2  0
  2  3  1  0
  2  4  1  0
  4  5  1  0
  5  6  1  0
  6  7  2  0
  7  8  1  0
  8  9  1  0
  9 10  2  0
 10 11  1  0
 11 12  2  0
 12 13  1  0
 13 14  2  0
  4 15  1  0
 15 16  1  0
 16 17  2  0
 16 18  2  0
 16 19  1  0
 19 20  2  0
 20 21  1  0
 21 22  2  0
 22 23  1  0
 23 24  2  0
 14  6  1  0
 24 19  1  0
 14  9  1  0
  3 25  1  0
  4 26  1  6
  5 27  1  0
  5 28  1  0
  7 29  1  0
  8 30  1  0
 10 31  1  0
 11 32  1  0
 12 33  1  0
 13 34  1  0
 15 35  1  0
 20 36  1  0
 21 37  1  0
 22 38  1  0
 23 39  1  0
 24 40  1  0
M  END
>  <UniqueID>  (69) 
68

>  <SMILES>  (69) 
O=C(O)[C@@H](Cc1c[nH]c2ccccc12)NS(=O)(=O)c1ccccc1

>  <Energy>  (69) 
69.8180633533611

>  <Genealogy>  (69) 
O=C(O)[C@@H](Cc1c[nH]c2ccccc12)NS(=O)(=O)c1ccccc1 (chirality)
O=C(O)[C@@H](Cc1c[nH]c2ccccc12)NS(=O)(=O)c1ccccc1 (3D coordinates assigned)
O=C(O)[C@@H](Cc1c[nH]c2ccccc12)NS(=O)(=O)c1ccccc1 (optimized conformer: 69.8180633533611 kcal/mol)

$$$$
untitled_line_69
     RDKit          3D

 30 31  0  0  0  0  0  0  0  0999 V2000
   -4.0416    2.0408    0.0358 O   0  0  0  0  0  0  0  0  0  0  0  0
   -3.0741    1.5056    0.6407 C   0  0  0  0  0  0  0  0  0  0  0  0
   -3.1698    1.2546    2.0073 O   0  0  0  0  0  0  0  0  0  0  0  0
   -1.8462    1.0991   -0.1268 C   0  0  1  0  0  0  0  0  0  0  0  0
   -0.5662    1.3476    0.6953 C   0  0  0  0  0  0  0  0  0  0  0  0
    0.6700    1.1193   -0.1282 C   0  0  0  0  0  0  0  0  0  0  0  0
    1.2085    1.9957   -1.0657 C   0  0  0  0  0  0  0  0  0  0  0  0
    2.2762    1.4354   -1.6779 N   0  0  0  0  0  0  0  0  0  0  0  0
    2.4103    0.2094   -1.1431 C   0  0  0  0  0  0  0  0  0  0  0  0
    3.3631   -0.7544   -1.4704 C   0  0  0  0  0  0  0  0  0  0  0  0
    3.3107   -1.9871   -0.7946 C   0  0  0  0  0  0  0  0  0  0  0  0
    2.3177   -2.2267    0.1808 C   0  0  0  0  0  0  0  0  0  0  0  0
    1.3682   -1.2361    0.4901 C   0  0  0  0  0  0  0  0  0  0  0  0
    1.4458   -0.0228   -0.1954 C   0  0  0  0  0  0  0  0  0  0  0  0
   -1.9636   -0.3414   -0.5579 C   0  0  0  0  0  0  0  0  0  0  0  0
   -1.9030   -0.6266   -1.7842 O   0  0  0  0  0  0  0  0  0  0  0  0
   -2.1265   -1.3893    0.4041 N   0  0  0  0  0  0  0  0  0  0  0  0
   -2.2006   -2.6817    0.0061 O   0  0  0  0  0  0  0  0  0  0  0  0
   -4.0012    1.5109    2.5259 H   0  0  0  0  0  0  0  0  0  0  0  0
   -1.7931    1.7401   -1.0367 H   0  0  0  0  0  0  0  0  0  0  0  0
   -0.5444    0.6998    1.5976 H   0  0  0  0  0  0  0  0  0  0  0  0
   -0.5571    2.4019    1.0489 H   0  0  0  0  0  0  0  0  0  0  0  0
    0.8296    2.9829   -1.2962 H   0  0  0  0  0  0  0  0  0  0  0  0
    2.8651    1.8658   -2.4252 H   0  0  0  0  0  0  0  0  0  0  0  0
    4.1178   -0.5631   -2.2222 H   0  0  0  0  0  0  0  0  0  0  0  0
    4.0352   -2.7573   -1.0249 H   0  0  0  0  0  0  0  0  0  0  0  0
    2.2865   -3.1791    0.6937 H   0  0  0  0  0  0  0  0  0  0  0  0
    0.6075   -1.4159    1.2375 H   0  0  0  0  0  0  0  0  0  0  0  0
   -2.1555   -1.1718    1.4248 H   0  0  0  0  0  0  0  0  0  0  0  0
   -3.1693   -2.8556   -0.1120 H   0  0  0  0  0  0  0  0  0  0  0  0
  1  2  2  0
  2  3  1  0
  2  4  1  0
  4  5  1  0
  5  6  1  0
  6  7  2  0
  7  8  1  0
  8  9  1  0
  9 10  2  0
 10 11  1  0
 11 12  2  0
 12 13  1  0
 13 14  2  0
  4 15  1  0
 15 16  2  0
 15 17  1  0
 17 18  1  0
 14  6  1  0
 14  9  1  0
  3 19  1  0
  4 20  1  6
  5 21  1  0
  5 22  1  0
  7 23  1  0
  8 24  1  0
 10 25  1  0
 11 26  1  0
 12 27  1  0
 13 28  1  0
 17 29  1  0
 18 30  1  0
M  END
>  <UniqueID>  (70) 
69

>  <SMILES>  (70) 
O=C(O)[C@@H](Cc1c[nH]c2ccccc12)C(=O)NO

>  <Energy>  (70) 
56.73565481918613

>  <Genealogy>  (70) 
O=C(O)C(Cc1c[nH]c2ccccc12)C(=O)NO (protonated)
O=C(O)[C@@H](Cc1c[nH]c2ccccc12)C(=O)NO (chirality)
O=C(O)[C@@H](Cc1c[nH]c2ccccc12)C(=O)NO (3D coordinates assigned)
O=C(O)[C@@H](Cc1c[nH]c2ccccc12)C(=O)NO (optimized conformer: 56.73565481918613 kcal/mol)

$$$$
untitled_line_70
     RDKit          3D

 32 33  0  0  0  0  0  0  0  0999 V2000
   -2.0967   -2.1581   -0.0273 C   0  0  0  0  0  0  0  0  0  0  0  0
   -1.5644   -1.0551   -0.8825 C   0  0  0  0  0  0  0  0  0  0  0  0
   -0.8800   -1.3377   -1.9028 O   0  0  0  0  0  0  0  0  0  0  0  0
   -1.7877    0.3125   -0.5081 N   0  0  0  0  0  0  0  0  0  0  0  0
   -1.1706    1.4423   -1.2107 C   0  0  2  0  0  0  0  0  0  0  0  0
    0.0253    1.9834   -0.4100 C   0  0  0  0  0  0  0  0  0  0  0  0
    1.1137    0.9554   -0.2950 C   0  0  0  0  0  0  0  0  0  0  0  0
    2.0788    0.6651   -1.2547 C   0  0  0  0  0  0  0  0  0  0  0  0
    2.8307   -0.3893   -0.8647 N   0  0  0  0  0  0  0  0  0  0  0  0
    2.3403   -0.7754    0.3260 C   0  0  0  0  0  0  0  0  0  0  0  0
    2.7686   -1.8472    1.1081 C   0  0  0  0  0  0  0  0  0  0  0  0
    2.0866   -2.0959    2.3132 C   0  0  0  0  0  0  0  0  0  0  0  0
    1.0020   -1.2795    2.7033 C   0  0  0  0  0  0  0  0  0  0  0  0
    0.5903   -0.2059    1.8931 C   0  0  0  0  0  0  0  0  0  0  0  0
    1.2890    0.0191    0.7062 C   0  0  0  0  0  0  0  0  0  0  0  0
   -2.1921    2.5254   -1.4074 C   0  0  0  0  0  0  0  0  0  0  0  0
   -2.4806    2.9178   -2.5698 O   0  0  0  0  0  0  0  0  0  0  0  0
   -2.8212    3.1008   -0.3067 O   0  0  0  0  0  0  0  0  0  0  0  0
   -2.1305   -3.1099   -0.5987 H   0  0  0  0  0  0  0  0  0  0  0  0
   -3.1239   -1.9107    0.3133 H   0  0  0  0  0  0  0  0  0  0  0  0
   -1.4395   -2.2887    0.8572 H   0  0  0  0  0  0  0  0  0  0  0  0
   -2.3033    0.5014    0.3819 H   0  0  0  0  0  0  0  0  0  0  0  0
   -0.8097    1.1222   -2.2142 H   0  0  0  0  0  0  0  0  0  0  0  0
    0.4393    2.8798   -0.9217 H   0  0  0  0  0  0  0  0  0  0  0  0
   -0.3009    2.2987    0.6048 H   0  0  0  0  0  0  0  0  0  0  0  0
    2.2082    1.1839   -2.1956 H   0  0  0  0  0  0  0  0  0  0  0  0
    3.6167   -0.8265   -1.3952 H   0  0  0  0  0  0  0  0  0  0  0  0
    3.5951   -2.4726    0.7965 H   0  0  0  0  0  0  0  0  0  0  0  0
    2.3923   -2.9210    2.9431 H   0  0  0  0  0  0  0  0  0  0  0  0
    0.4812   -1.4836    3.6297 H   0  0  0  0  0  0  0  0  0  0  0  0
   -0.2459    0.4164    2.1831 H   0  0  0  0  0  0  0  0  0  0  0  0
   -3.5110    3.8329   -0.4263 H   0  0  0  0  0  0  0  0  0  0  0  0
  1  2  1  0
  2  3  2  0
  2  4  1  0
  4  5  1  0
  5  6  1  0
  6  7  1  0
  7  8  2  0
  8  9  1  0
  9 10  1  0
 10 11  2  0
 11 12  1  0
 12 13  2  0
 13 14  1  0
 14 15  2  0
  5 16  1  0
 16 17  2  0
 16 18  1  0
 15  7  1  0
 15 10  1  0
  1 19  1  0
  1 20  1  0
  1 21  1  0
  4 22  1  0
  5 23  1  6
  6 24  1  0
  6 25  1  0
  8 26  1  0
  9 27  1  0
 11 28  1  0
 12 29  1  0
 13 30  1  0
 14 31  1  0
 18 32  1  0
M  END
>  <UniqueID>  (71) 
70

>  <SMILES>  (71) 
CC(=O)N[C@H](Cc1c[nH]c2ccccc12)C(=O)O

>  <Energy>  (71) 
56.3996052753822

>  <Genealogy>  (71) 
CC(=O)N[C@H](Cc1c[nH]c2ccccc12)C(=O)O (3D coordinates assigned)
CC(=O)N[C@H](Cc1c[nH]c2ccccc12)C(=O)O (optimized conformer: 56.3996052753822 kcal/mol)

$$$$
untitled_line_71
     RDKit          3D

 28 29  0  0  0  0  0  0  0  0999 V2000
   -1.0262    2.9348   -2.2844 C   0  0  0  0  0  0  0  0  0  0  0  0
   -1.7132    2.5467   -0.9679 C   0  0  1  0  0  0  0  0  0  0  0  0
   -2.4536    1.1955   -1.0660 C   0  0  0  0  0  0  0  0  0  0  0  0
   -1.5424    0.0267   -1.3293 C   0  0  0  0  0  0  0  0  0  0  0  0
   -1.1359   -0.4427   -2.5753 C   0  0  0  0  0  0  0  0  0  0  0  0
   -0.2875   -1.4864   -2.4337 N   0  0  0  0  0  0  0  0  0  0  0  0
   -0.1533   -1.6794   -1.1103 C   0  0  0  0  0  0  0  0  0  0  0  0
    0.6290   -2.6412   -0.4724 C   0  0  0  0  0  0  0  0  0  0  0  0
    0.6280   -2.6625    0.9342 C   0  0  0  0  0  0  0  0  0  0  0  0
   -0.1461   -1.7330    1.6635 C   0  0  0  0  0  0  0  0  0  0  0  0
   -0.9265   -0.7736    0.9931 C   0  0  0  0  0  0  0  0  0  0  0  0
   -0.9042   -0.7757   -0.4023 C   0  0  0  0  0  0  0  0  0  0  0  0
   -0.7408    2.5641    0.1820 C   0  0  0  0  0  0  0  0  0  0  0  0
   -1.1159    2.9751    1.3127 O   0  0  0  0  0  0  0  0  0  0  0  0
    0.5558    2.0827    0.0184 O   0  0  0  0  0  0  0  0  0  0  0  0
   -0.2038    2.2316   -2.5333 H   0  0  0  0  0  0  0  0  0  0  0  0
   -0.6009    3.9578   -2.2014 H   0  0  0  0  0  0  0  0  0  0  0  0
   -1.7632    2.9321   -3.1155 H   0  0  0  0  0  0  0  0  0  0  0  0
   -2.4843    3.3247   -0.7701 H   0  0  0  0  0  0  0  0  0  0  0  0
   -3.0168    1.0162   -0.1247 H   0  0  0  0  0  0  0  0  0  0  0  0
   -3.2093    1.2515   -1.8795 H   0  0  0  0  0  0  0  0  0  0  0  0
   -1.4387   -0.0366   -3.5317 H   0  0  0  0  0  0  0  0  0  0  0  0
    0.1724   -2.0263   -3.2002 H   0  0  0  0  0  0  0  0  0  0  0  0
    1.2196   -3.3488   -1.0398 H   0  0  0  0  0  0  0  0  0  0  0  0
    1.2247   -3.3958    1.4608 H   0  0  0  0  0  0  0  0  0  0  0  0
   -0.1388   -1.7585    2.7453 H   0  0  0  0  0  0  0  0  0  0  0  0
   -1.5204   -0.0589    1.5472 H   0  0  0  0  0  0  0  0  0  0  0  0
    1.2061    2.0667    0.7948 H   0  0  0  0  0  0  0  0  0  0  0  0
  1  2  1  0
  2  3  1  0
  3  4  1  0
  4  5  2  0
  5  6  1  0
  6  7  1  0
  7  8  2  0
  8  9  1  0
  9 10  2  0
 10 11  1  0
 11 12  2  0
  2 13  1  0
 13 14  2  0
 13 15  1  0
 12  4  1  0
 12  7  1  0
  1 16  1  0
  1 17  1  0
  1 18  1  0
  2 19  1  1
  3 20  1  0
  3 21  1  0
  5 22  1  0
  6 23  1  0
  8 24  1  0
  9 25  1  0
 10 26  1  0
 11 27  1  0
 15 28  1  0
M  END
>  <UniqueID>  (72) 
71

>  <SMILES>  (72) 
C[C@@H](Cc1c[nH]c2ccccc12)C(=O)O

>  <Energy>  (72) 
55.8762579988532

>  <Genealogy>  (72) 
C[C@@H](Cc1c[nH]c2ccccc12)C(=O)O (chirality)
C[C@@H](Cc1c[nH]c2ccccc12)C(=O)O (3D coordinates assigned)
C[C@@H](Cc1c[nH]c2ccccc12)C(=O)O (optimized conformer: 55.8762579988532 kcal/mol)

$$$$
untitled_line_72
     RDKit          3D

 54 57  0  0  0  0  0  0  0  0999 V2000
   -1.2144   -1.2561    2.6202 H   0  0  0  0  0  0  0  0  0  0  0  0
   -1.5383   -0.8511    1.7502 O   0  0  0  0  0  0  0  0  0  0  0  0
   -1.5429    0.5277    1.5633 C   0  0  0  0  0  0  0  0  0  0  0  0
   -1.1449    1.2877    2.4874 O   0  0  0  0  0  0  0  0  0  0  0  0
   -2.0423    1.1068    0.2580 C   0  0  1  0  0  0  0  0  0  0  0  0
   -2.2809    0.2565   -0.4240 H   0  0  0  0  0  0  0  0  0  0  0  0
   -3.3555    1.8888    0.5215 C   0  0  0  0  0  0  0  0  0  0  0  0
   -3.1657    2.7268    1.2273 H   0  0  0  0  0  0  0  0  0  0  0  0
   -3.7419    2.3320   -0.4192 H   0  0  0  0  0  0  0  0  0  0  0  0
   -4.4335    0.9970    1.0698 C   0  0  0  0  0  0  0  0  0  0  0  0
   -4.8073    0.8663    2.4039 C   0  0  0  0  0  0  0  0  0  0  0  0
   -4.3920    1.4239    3.2333 H   0  0  0  0  0  0  0  0  0  0  0  0
   -5.7637   -0.0815    2.5347 N   0  0  0  0  0  0  0  0  0  0  0  0
   -6.2213   -0.3893    3.4215 H   0  0  0  0  0  0  0  0  0  0  0  0
   -5.9888   -0.5559    1.2969 C   0  0  0  0  0  0  0  0  0  0  0  0
   -6.8795   -1.5624    0.9261 C   0  0  0  0  0  0  0  0  0  0  0  0
   -7.5021   -2.0576    1.6599 H   0  0  0  0  0  0  0  0  0  0  0  0
   -6.9410   -1.9174   -0.4342 C   0  0  0  0  0  0  0  0  0  0  0  0
   -7.6216   -2.6949   -0.7561 H   0  0  0  0  0  0  0  0  0  0  0  0
   -6.1184   -1.2681   -1.3817 C   0  0  0  0  0  0  0  0  0  0  0  0
   -6.1727   -1.5511   -2.4247 H   0  0  0  0  0  0  0  0  0  0  0  0
   -5.2275   -0.2570   -0.9781 C   0  0  0  0  0  0  0  0  0  0  0  0
   -4.5921    0.2429   -1.6978 H   0  0  0  0  0  0  0  0  0  0  0  0
   -5.1924    0.0754    0.3763 C   0  0  0  0  0  0  0  0  0  0  0  0
   -1.0055    1.9684   -0.3769 N   0  0  1  0  0  4  0  0  0  0  0  0
   -0.7334    2.7572    0.2596 H   0  0  0  0  0  0  0  0  0  0  0  0
    0.1730    1.2085   -0.7057 C   0  0  0  0  0  0  0  0  0  0  0  0
    0.9765    0.8203    0.1855 O   0  0  0  0  0  0  0  0  0  0  0  0
    0.3601    0.9153   -2.1319 C   0  0  0  0  0  0  0  0  0  0  0  0
    1.4505    0.4088   -2.7267 C   0  0  0  0  0  0  0  0  0  0  0  0
    1.3954    0.1742   -3.7828 H   0  0  0  0  0  0  0  0  0  0  0  0
    2.7260    0.1230   -2.0433 C   0  0  0  0  0  0  0  0  0  0  0  0
    3.4055    1.1248   -1.3311 C   0  0  0  0  0  0  0  0  0  0  0  0
    2.9841    2.1190   -1.2459 H   0  0  0  0  0  0  0  0  0  0  0  0
    4.6347    0.8488   -0.7259 C   0  0  0  0  0  0  0  0  0  0  0  0
    5.1356    1.6272   -0.1636 H   0  0  0  0  0  0  0  0  0  0  0  0
    5.2159   -0.4228   -0.8507 C   0  0  0  0  0  0  0  0  0  0  0  0
    6.5211   -0.7316   -0.1674 C   0  0  0  0  0  0  0  0  0  0  0  0
    7.1515    0.1841   -0.1301 H   0  0  0  0  0  0  0  0  0  0  0  0
    7.0805   -1.4949   -0.7521 H   0  0  0  0  0  0  0  0  0  0  0  0
    6.2744   -1.2477    1.2538 C   0  0  0  0  0  0  0  0  0  0  0  0
    5.7263   -0.4791    1.8417 H   0  0  0  0  0  0  0  0  0  0  0  0
    5.6539   -2.1698    1.2152 H   0  0  0  0  0  0  0  0  0  0  0  0
    7.5884   -1.5660    1.9609 C   0  0  0  0  0  0  0  0  0  0  0  0
    8.2176   -0.6535    2.0350 H   0  0  0  0  0  0  0  0  0  0  0  0
    7.3783   -1.9366    2.9863 H   0  0  0  0  0  0  0  0  0  0  0  0
    8.1445   -2.3516    1.4063 H   0  0  0  0  0  0  0  0  0  0  0  0
    4.5443   -1.4178   -1.5785 C   0  0  0  0  0  0  0  0  0  0  0  0
    4.9734   -2.4072   -1.6780 H   0  0  0  0  0  0  0  0  0  0  0  0
    3.3149   -1.1410   -2.1839 C   0  0  0  0  0  0  0  0  0  0  0  0
    2.8153   -1.9172   -2.7507 H   0  0  0  0  0  0  0  0  0  0  0  0
   -1.0722    1.3862   -3.0725 S   0  0  0  0  0  0  0  0  0  0  0  0
   -1.4535    2.4437   -1.6731 C   0  0  0  0  0  0  0  0  0  0  0  0
   -1.6965    3.8450   -1.9081 S   0  0  0  0  0  0  0  0  0  0  0  0
  1  2  1  0
  2  3  1  0
  3  4  2  0
  3  5  1  0
  5  6  1  6
  5  7  1  0
  7  8  1  0
  7  9  1  0
  7 10  1  0
 10 11  2  0
 11 12  1  0
 11 13  1  0
 13 14  1  0
 13 15  1  0
 15 16  2  0
 16 17  1  0
 16 18  1  0
 18 19  1  0
 18 20  2  0
 20 21  1  0
 20 22  1  0
 22 23  1  0
 22 24  2  0
  5 25  1  0
 25 26  1  1
 25 27  1  0
 27 28  2  0
 27 29  1  0
 29 30  2  0
 30 31  1  0
 30 32  1  0
 32 33  2  0
 33 34  1  0
 33 35  1  0
 35 36  1  0
 35 37  2  0
 37 38  1  0
 38 39  1  0
 38 40  1  0
 38 41  1  0
 41 42  1  0
 41 43  1  0
 41 44  1  0
 44 45  1  0
 44 46  1  0
 44 47  1  0
 37 48  1  0
 48 49  1  0
 48 50  2  0
 50 51  1  0
 29 52  1  0
 52 53  1  0
 53 54  2  0
 24 10  1  0
 53 25  1  0
 24 15  1  0
 50 32  1  0
M  CHG  1  25   1
M  END
>  <UniqueID>  (73) 
72

>  <SMILES>  (73) 
CCCc1ccc(/C=C2\SC(=S)[N@@H+]([C@H](Cc3c[nH]c4ccccc34)C(=O)O)C2=O)cc1

>  <Energy>  (73) 
109.77903682255477

>  <Genealogy>  (73) 
CCCc1ccc(/C=C2\SC(=S)[NH+]([C@H](Cc3c[nH]c4ccccc34)C(=O)O)C2=O)cc1 (protonated)
CCCc1ccc(/C=C2\SC(=S)[N@@H+]([C@H](Cc3c[nH]c4ccccc34)C(=O)O)C2=O)cc1 (chirality)
CCCc1ccc(/C=C2\SC(=S)[N@@H+]([C@H](Cc3c[nH]c4ccccc34)C(=O)O)C2=O)cc1 (cis-trans isomerization)
CCCc1ccc(/C=C2\SC(=S)[N@@H+]([C@H](Cc3c[nH]c4ccccc34)C(=O)O)C2=O)cc1 (3D coordinates assigned)
CCCc1ccc(/C=C2\SC(=S)[N@@H+]([C@H](Cc3c[nH]c4ccccc34)C(=O)O)C2=O)cc1 (nonaromatic ring conformer: 109.77903682255477 kcal/mol)

$$$$
untitled_line_73
     RDKit          3D

 30 31  0  0  0  0  0  0  0  0999 V2000
    3.4597    2.0767   -0.7625 O   0  0  0  0  0  0  0  0  0  0  0  0
    2.5195    2.2114    0.0657 C   0  0  0  0  0  0  0  0  0  0  0  0
    2.4871    3.3443    0.8743 O   0  0  0  0  0  0  0  0  0  0  0  0
    1.4757    1.1353    0.2214 C   0  0  1  0  0  0  0  0  0  0  0  0
    1.0943    0.5134   -1.1378 C   0  0  0  0  0  0  0  0  0  0  0  0
   -0.0425   -0.4586   -0.9997 C   0  0  0  0  0  0  0  0  0  0  0  0
    0.0595   -1.8406   -0.8697 C   0  0  0  0  0  0  0  0  0  0  0  0
   -1.1638   -2.3890   -0.6892 N   0  0  0  0  0  0  0  0  0  0  0  0
   -2.0345   -1.3645   -0.6926 C   0  0  0  0  0  0  0  0  0  0  0  0
   -3.4165   -1.4294   -0.5202 C   0  0  0  0  0  0  0  0  0  0  0  0
   -4.1387   -0.2219   -0.5381 C   0  0  0  0  0  0  0  0  0  0  0  0
   -3.4706    1.0092   -0.7218 C   0  0  0  0  0  0  0  0  0  0  0  0
   -2.0744    1.0444   -0.8911 C   0  0  0  0  0  0  0  0  0  0  0  0
   -1.3869   -0.1693   -0.8742 C   0  0  0  0  0  0  0  0  0  0  0  0
    1.9588    0.0937    1.1992 C   0  0  0  0  0  0  0  0  0  0  0  0
    1.3239   -0.0885    2.2728 O   0  0  0  0  0  0  0  0  0  0  0  0
    3.1201   -0.6963    0.9215 N   0  0  0  0  0  0  0  0  0  0  0  0
    3.5270   -1.6493    1.7935 O   0  0  0  0  0  0  0  0  0  0  0  0
    1.7631    3.4735    1.5709 H   0  0  0  0  0  0  0  0  0  0  0  0
    0.5611    1.6152    0.6367 H   0  0  0  0  0  0  0  0  0  0  0  0
    0.7881    1.3191   -1.8401 H   0  0  0  0  0  0  0  0  0  0  0  0
    1.9667   -0.0045   -1.5919 H   0  0  0  0  0  0  0  0  0  0  0  0
    0.9796   -2.4101   -0.8911 H   0  0  0  0  0  0  0  0  0  0  0  0
   -1.3814   -3.4019   -0.5581 H   0  0  0  0  0  0  0  0  0  0  0  0
   -3.9188   -2.3769   -0.3741 H   0  0  0  0  0  0  0  0  0  0  0  0
   -5.2128   -0.2365   -0.4071 H   0  0  0  0  0  0  0  0  0  0  0  0
   -4.0361    1.9319   -0.7308 H   0  0  0  0  0  0  0  0  0  0  0  0
   -1.5555    1.9841   -1.0286 H   0  0  0  0  0  0  0  0  0  0  0  0
    3.6742   -0.5366    0.0511 H   0  0  0  0  0  0  0  0  0  0  0  0
    3.0738   -2.4781    1.4927 H   0  0  0  0  0  0  0  0  0  0  0  0
  1  2  2  0
  2  3  1  0
  2  4  1  0
  4  5  1  0
  5  6  1  0
  6  7  2  0
  7  8  1  0
  8  9  1  0
  9 10  2  0
 10 11  1  0
 11 12  2  0
 12 13  1  0
 13 14  2  0
  4 15  1  0
 15 16  2  0
 15 17  1  0
 17 18  1  0
 14  6  1  0
 14  9  1  0
  3 19  1  0
  4 20  1  1
  5 21  1  0
  5 22  1  0
  7 23  1  0
  8 24  1  0
 10 25  1  0
 11 26  1  0
 12 27  1  0
 13 28  1  0
 17 29  1  0
 18 30  1  0
M  END
>  <UniqueID>  (74) 
73

>  <SMILES>  (74) 
O=C(O)[C@@H](Cc1c[nH]c2ccccc12)C(=O)NO

>  <Energy>  (74) 
57.160610260559544

>  <Genealogy>  (74) 
O=C(O)[C@@H](Cc1c[nH]c2ccccc12)C(=O)NO (3D coordinates assigned)
O=C(O)[C@@H](Cc1c[nH]c2ccccc12)C(=O)NO (optimized conformer: 57.160610260559544 kcal/mol)

$$$$
untitled_line_74
     RDKit          3D

 22 23  0  0  0  0  0  0  0  0999 V2000
    3.5997   -1.7152    0.5702 O   0  0  0  0  0  0  0  0  0  0  0  0
    3.4890   -0.4755    0.3729 C   0  0  0  0  0  0  0  0  0  0  0  0
    3.8119    0.4219    1.3858 O   0  0  0  0  0  0  0  0  0  0  0  0
    2.9655    0.0312   -0.9316 C   0  0  0  0  0  0  0  0  0  0  0  0
    1.4724    0.1367   -0.8791 C   0  0  0  0  0  0  0  0  0  0  0  0
    0.5585   -0.8366   -1.2720 C   0  0  0  0  0  0  0  0  0  0  0  0
   -0.7055   -0.4276   -1.0169 N   0  0  0  0  0  0  0  0  0  0  0  0
   -0.5964    0.7891   -0.4554 C   0  0  0  0  0  0  0  0  0  0  0  0
   -1.6310    1.6061   -0.0014 C   0  0  0  0  0  0  0  0  0  0  0  0
   -1.2875    2.8424    0.5759 C   0  0  0  0  0  0  0  0  0  0  0  0
    0.0668    3.2283    0.6884 C   0  0  0  0  0  0  0  0  0  0  0  0
    1.0903    2.3824    0.2233 C   0  0  0  0  0  0  0  0  0  0  0  0
    0.7183    1.1656   -0.3490 C   0  0  0  0  0  0  0  0  0  0  0  0
    4.1510    0.0936    2.2821 H   0  0  0  0  0  0  0  0  0  0  0  0
    3.2651   -0.6575   -1.7508 H   0  0  0  0  0  0  0  0  0  0  0  0
    3.4059    1.0273   -1.1494 H   0  0  0  0  0  0  0  0  0  0  0  0
    0.8063   -1.7949   -1.7099 H   0  0  0  0  0  0  0  0  0  0  0  0
   -1.5844   -0.9588   -1.2060 H   0  0  0  0  0  0  0  0  0  0  0  0
   -2.6654    1.2994   -0.0869 H   0  0  0  0  0  0  0  0  0  0  0  0
   -2.0661    3.5007    0.9386 H   0  0  0  0  0  0  0  0  0  0  0  0
    0.3192    4.1804    1.1367 H   0  0  0  0  0  0  0  0  0  0  0  0
    2.1297    2.6707    0.3094 H   0  0  0  0  0  0  0  0  0  0  0  0
  1  2  2  0
  2  3  1  0
  2  4  1  0
  4  5  1  0
  5  6  2  0
  6  7  1  0
  7  8  1  0
  8  9  2  0
  9 10  1  0
 10 11  2  0
 11 12  1  0
 12 13  2  0
 13  5  1  0
 13  8  1  0
  3 14  1  0
  4 15  1  0
  4 16  1  0
  6 17  1  0
  7 18  1  0
  9 19  1  0
 10 20  1  0
 11 21  1  0
 12 22  1  0
M  END
>  <UniqueID>  (75) 
74

>  <SMILES>  (75) 
O=C(O)Cc1c[nH]c2ccccc12

>  <Energy>  (75) 
52.30849568388287

>  <Genealogy>  (75) 
O=C(O)Cc1c[nH]c2ccccc12 (3D coordinates assigned)
O=C(O)Cc1c[nH]c2ccccc12 (optimized conformer: 52.30849568388287 kcal/mol)

$$$$
untitled_line_75
     RDKit          3D

 39 41  0  0  0  0  0  0  0  0999 V2000
   -2.3085   -1.2895   -1.0736 O   0  0  0  0  0  0  0  0  0  0  0  0
   -1.6837   -0.2475   -0.7334 C   0  0  0  0  0  0  0  0  0  0  0  0
   -1.6842    0.1603    0.6443 N   0  0  0  0  0  0  0  0  0  0  0  0
   -2.0533   -0.7605    1.7295 C   0  0  1  0  0  0  0  0  0  0  0  0
   -0.9558   -1.8211    1.9594 C   0  0  0  0  0  0  0  0  0  0  0  0
    0.4146   -1.2200    2.1229 C   0  0  0  0  0  0  0  0  0  0  0  0
    0.9268   -0.6231    3.2717 C   0  0  0  0  0  0  0  0  0  0  0  0
    2.1578   -0.1168    3.0334 N   0  0  0  0  0  0  0  0  0  0  0  0
    2.4289   -0.3885    1.7454 C   0  0  0  0  0  0  0  0  0  0  0  0
    3.5792   -0.0474    1.0352 C   0  0  0  0  0  0  0  0  0  0  0  0
    3.6534   -0.4249   -0.3178 C   0  0  0  0  0  0  0  0  0  0  0  0
    2.5915   -1.1330   -0.9219 C   0  0  0  0  0  0  0  0  0  0  0  0
    1.4440   -1.4660   -0.1802 C   0  0  0  0  0  0  0  0  0  0  0  0
    1.3919   -1.0663    1.1564 C   0  0  0  0  0  0  0  0  0  0  0  0
   -2.3670   -0.0160    3.0071 C   0  0  0  0  0  0  0  0  0  0  0  0
   -1.7376    1.0314    3.3139 O   0  0  0  0  0  0  0  0  0  0  0  0
   -3.3197   -0.5141    3.8916 O   0  0  0  0  0  0  0  0  0  0  0  0
   -0.9564    0.5347   -1.7635 C   0  0  0  0  0  0  0  0  0  0  0  0
   -1.2897    0.3906   -3.1234 C   0  0  0  0  0  0  0  0  0  0  0  0
   -0.5905    1.1006   -4.1043 C   0  0  0  0  0  0  0  0  0  0  0  0
    0.4534    1.9539   -3.7415 C   0  0  0  0  0  0  0  0  0  0  0  0
    0.8014    2.0980   -2.3971 C   0  0  0  0  0  0  0  0  0  0  0  0
    0.1030    1.3943   -1.4116 C   0  0  0  0  0  0  0  0  0  0  0  0
   -1.4190    1.1445    0.8711 H   0  0  0  0  0  0  0  0  0  0  0  0
   -2.9842   -1.2924    1.4339 H   0  0  0  0  0  0  0  0  0  0  0  0
   -0.9474   -2.5279    1.1030 H   0  0  0  0  0  0  0  0  0  0  0  0
   -1.1989   -2.4232    2.8619 H   0  0  0  0  0  0  0  0  0  0  0  0
    0.4202   -0.5516    4.2252 H   0  0  0  0  0  0  0  0  0  0  0  0
    2.7669    0.3908    3.7130 H   0  0  0  0  0  0  0  0  0  0  0  0
    4.3889    0.4937    1.5075 H   0  0  0  0  0  0  0  0  0  0  0  0
    4.5307   -0.1725   -0.8989 H   0  0  0  0  0  0  0  0  0  0  0  0
    2.6594   -1.4193   -1.9633 H   0  0  0  0  0  0  0  0  0  0  0  0
    0.6308   -2.0100   -0.6408 H   0  0  0  0  0  0  0  0  0  0  0  0
   -3.8236   -1.3705    3.6949 H   0  0  0  0  0  0  0  0  0  0  0  0
   -2.0944   -0.2669   -3.4283 H   0  0  0  0  0  0  0  0  0  0  0  0
   -0.8568    0.9864   -5.1471 H   0  0  0  0  0  0  0  0  0  0  0  0
    0.9963    2.4993   -4.5027 H   0  0  0  0  0  0  0  0  0  0  0  0
    1.6194    2.7496   -2.1181 H   0  0  0  0  0  0  0  0  0  0  0  0
    0.4194    1.5019   -0.3829 H   0  0  0  0  0  0  0  0  0  0  0  0
  1  2  2  0
  2  3  1  0
  3  4  1  0
  4  5  1  0
  5  6  1  0
  6  7  2  0
  7  8  1  0
  8  9  1  0
  9 10  2  0
 10 11  1  0
 11 12  2  0
 12 13  1  0
 13 14  2  0
  4 15  1  0
 15 16  2  0
 15 17  1  0
  2 18  1  0
 18 19  2  0
 19 20  1  0
 20 21  2  0
 21 22  1  0
 22 23  2  0
 14  6  1  0
 23 18  1  0
 14  9  1  0
  3 24  1  0
  4 25  1  6
  5 26  1  0
  5 27  1  0
  7 28  1  0
  8 29  1  0
 10 30  1  0
 11 31  1  0
 12 32  1  0
 13 33  1  0
 17 34  1  0
 19 35  1  0
 20 36  1  0
 21 37  1  0
 22 38  1  0
 23 39  1  0
M  END
>  <UniqueID>  (76) 
75

>  <SMILES>  (76) 
O=C(N[C@@H](Cc1c[nH]c2ccccc12)C(=O)O)c1ccccc1

>  <Energy>  (76) 
70.90687103153998

>  <Genealogy>  (76) 
O=C(N[C@@H](Cc1c[nH]c2ccccc12)C(=O)O)c1ccccc1 (chirality)
O=C(N[C@@H](Cc1c[nH]c2ccccc12)C(=O)O)c1ccccc1 (3D coordinates assigned)
O=C(N[C@@H](Cc1c[nH]c2ccccc12)C(=O)O)c1ccccc1 (optimized conformer: 70.90687103153998 kcal/mol)

$$$$
untitled_line_76
     RDKit          3D

 40 43  0  0  0  0  0  0  0  0999 V2000
   -1.7329   -3.7703   -3.9118 O   0  0  0  0  0  0  0  0  0  0  0  0
   -1.9785   -2.6237   -3.4519 C   0  0  0  0  0  0  0  0  0  0  0  0
   -2.9414   -1.8410   -4.0880 O   0  0  0  0  0  0  0  0  0  0  0  0
   -1.1860   -2.1216   -2.2612 C   0  0  2  0  0  0  0  0  0  0  0  0
   -2.0869   -1.2889   -1.2981 C   0  0  0  0  0  0  0  0  0  0  0  0
   -1.4773   -1.0910    0.0632 C   0  0  0  0  0  0  0  0  0  0  0  0
   -1.0822   -2.0908    0.9490 C   0  0  0  0  0  0  0  0  0  0  0  0
   -0.5557   -1.5492    2.0703 N   0  0  0  0  0  0  0  0  0  0  0  0
   -0.6259   -0.2170    1.9083 C   0  0  0  0  0  0  0  0  0  0  0  0
   -0.1905    0.7641    2.7980 C   0  0  0  0  0  0  0  0  0  0  0  0
   -0.3547    2.1101    2.4250 C   0  0  0  0  0  0  0  0  0  0  0  0
   -0.9491    2.4420    1.1882 C   0  0  0  0  0  0  0  0  0  0  0  0
   -1.3804    1.4314    0.3106 C   0  0  0  0  0  0  0  0  0  0  0  0
   -1.1946    0.1037    0.7017 C   0  0  0  0  0  0  0  0  0  0  0  0
    0.0576   -1.4389   -2.7229 N   0  0  0  0  0  4  0  0  0  0  0  0
    1.0232   -1.2760   -1.6609 C   0  0  0  0  0  0  0  0  0  0  0  0
    1.5459   -2.2431   -1.0438 O   0  0  0  0  0  0  0  0  0  0  0  0
    1.3619    0.1192   -1.4290 C   0  0  0  0  0  0  0  0  0  0  0  0
    2.1927    0.7129   -0.4800 C   0  0  0  0  0  0  0  0  0  0  0  0
    2.2943    2.1156   -0.4794 C   0  0  0  0  0  0  0  0  0  0  0  0
    1.5703    2.8834   -1.4175 C   0  0  0  0  0  0  0  0  0  0  0  0
    0.7369    2.2536   -2.3595 C   0  0  0  0  0  0  0  0  0  0  0  0
    0.6550    0.8620   -2.3317 C   0  0  0  0  0  0  0  0  0  0  0  0
   -0.1298   -0.0651   -3.1330 C   0  0  0  0  0  0  0  0  0  0  0  0
   -0.8328    0.2763   -4.1211 O   0  0  0  0  0  0  0  0  0  0  0  0
   -3.1723   -0.9054   -3.7816 H   0  0  0  0  0  0  0  0  0  0  0  0
   -0.8912   -3.0411   -1.7047 H   0  0  0  0  0  0  0  0  0  0  0  0
   -3.0472   -1.8285   -1.1480 H   0  0  0  0  0  0  0  0  0  0  0  0
   -2.3435   -0.3070   -1.7421 H   0  0  0  0  0  0  0  0  0  0  0  0
   -1.1649   -3.1559    0.7770 H   0  0  0  0  0  0  0  0  0  0  0  0
   -0.1703   -2.0655    2.8920 H   0  0  0  0  0  0  0  0  0  0  0  0
    0.2628    0.4999    3.7445 H   0  0  0  0  0  0  0  0  0  0  0  0
   -0.0236    2.8965    3.0907 H   0  0  0  0  0  0  0  0  0  0  0  0
   -1.0688    3.4810    0.9105 H   0  0  0  0  0  0  0  0  0  0  0  0
   -1.8292    1.6859   -0.6398 H   0  0  0  0  0  0  0  0  0  0  0  0
    0.5154   -1.9712   -3.5003 H   0  0  0  0  0  0  0  0  0  0  0  0
    2.7338    0.1149    0.2414 H   0  0  0  0  0  0  0  0  0  0  0  0
    2.9260    2.6088    0.2476 H   0  0  0  0  0  0  0  0  0  0  0  0
    1.6508    3.9624   -1.4068 H   0  0  0  0  0  0  0  0  0  0  0  0
    0.1677    2.8328   -3.0747 H   0  0  0  0  0  0  0  0  0  0  0  0
  1  2  2  0
  2  3  1  0
  2  4  1  0
  4  5  1  0
  5  6  1  0
  6  7  2  0
  7  8  1  0
  8  9  1  0
  9 10  2  0
 10 11  1  0
 11 12  2  0
 12 13  1  0
 13 14  2  0
  4 15  1  0
 15 16  1  0
 16 17  2  0
 16 18  1  0
 18 19  2  0
 19 20  1  0
 20 21  2  0
 21 22  1  0
 22 23  2  0
 23 24  1  0
 24 25  2  0
 14  6  1  0
 24 15  1  0
 14  9  1  0
 23 18  1  0
  3 26  1  0
  4 27  1  1
  5 28  1  0
  5 29  1  0
  7 30  1  0
  8 31  1  0
 10 32  1  0
 11 33  1  0
 12 34  1  0
 13 35  1  0
 15 36  1  0
 19 37  1  0
 20 38  1  0
 21 39  1  0
 22 40  1  0
M  CHG  1  15   1
M  END
>  <UniqueID>  (77) 
76

>  <SMILES>  (77) 
O=C(O)[C@H](Cc1c[nH]c2ccccc12)[NH+]1C(=O)c2ccccc2C1=O

>  <Energy>  (77) 
102.55751908344307

>  <Genealogy>  (77) 
O=C(O)C(Cc1c[nH]c2ccccc12)[NH+]1C(=O)c2ccccc2C1=O (protonated)
O=C(O)[C@H](Cc1c[nH]c2ccccc12)[NH+]1C(=O)c2ccccc2C1=O (chirality)
O=C(O)[C@H](Cc1c[nH]c2ccccc12)[NH+]1C(=O)c2ccccc2C1=O (3D coordinates assigned)
O=C(O)[C@H](Cc1c[nH]c2ccccc12)[NH+]1C(=O)c2ccccc2C1=O (nonaromatic ring conformer: 102.55751908344307 kcal/mol)

$$$$
untitled_line_77
     RDKit          3D

 30 31  0  0  0  0  0  0  0  0999 V2000
   -2.0937    1.7188   -1.9785 O   0  0  0  0  0  0  0  0  0  0  0  0
   -1.7948    1.8308   -0.7595 C   0  0  0  0  0  0  0  0  0  0  0  0
   -2.5059    2.7294    0.0313 O   0  0  0  0  0  0  0  0  0  0  0  0
   -0.7042    0.9646   -0.1516 C   0  0  2  0  0  0  0  0  0  0  0  0
    0.5225    0.8975   -1.0954 C   0  0  0  0  0  0  0  0  0  0  0  0
    1.7043    0.2176   -0.4504 C   0  0  0  0  0  0  0  0  0  0  0  0
    2.0343   -1.1074   -0.7834 C   0  0  0  0  0  0  0  0  0  0  0  0
    3.1175   -1.7401   -0.1657 C   0  0  0  0  0  0  0  0  0  0  0  0
    3.8767   -1.0574    0.7884 C   0  0  0  0  0  0  0  0  0  0  0  0
    3.5535    0.2593    1.1273 C   0  0  0  0  0  0  0  0  0  0  0  0
    2.4709    0.8957    0.5124 C   0  0  0  0  0  0  0  0  0  0  0  0
   -1.1943   -0.3867    0.2441 N   0  0  0  0  0  4  0  0  0  0  0  0
   -1.9286   -1.0751   -0.7847 C   0  0  0  0  0  0  0  0  0  0  0  0
   -1.4070   -1.4834   -1.8561 O   0  0  0  0  0  0  0  0  0  0  0  0
   -3.3169   -1.3275   -0.4193 C   0  0  0  0  0  0  0  0  0  0  0  0
   -3.4945   -0.8631    0.8022 C   0  0  0  0  0  0  0  0  0  0  0  0
   -2.2241   -0.3017    1.2432 C   0  0  0  0  0  0  0  0  0  0  0  0
   -2.0319    0.1731    2.3947 O   0  0  0  0  0  0  0  0  0  0  0  0
   -2.3084    2.8334    1.0192 H   0  0  0  0  0  0  0  0  0  0  0  0
   -0.3524    1.4893    0.7661 H   0  0  0  0  0  0  0  0  0  0  0  0
    0.2592    0.3927   -2.0485 H   0  0  0  0  0  0  0  0  0  0  0  0
    0.8249    1.9326   -1.3695 H   0  0  0  0  0  0  0  0  0  0  0  0
    1.4517   -1.6513   -1.5162 H   0  0  0  0  0  0  0  0  0  0  0  0
    3.3670   -2.7608   -0.4253 H   0  0  0  0  0  0  0  0  0  0  0  0
    4.7144   -1.5489    1.2660 H   0  0  0  0  0  0  0  0  0  0  0  0
    4.1410    0.7865    1.8678 H   0  0  0  0  0  0  0  0  0  0  0  0
    2.2286    1.9151    0.7865 H   0  0  0  0  0  0  0  0  0  0  0  0
   -0.4276   -0.9982    0.6077 H   0  0  0  0  0  0  0  0  0  0  0  0
   -4.0670   -1.8232   -1.0211 H   0  0  0  0  0  0  0  0  0  0  0  0
   -4.4151   -0.9116    1.3686 H   0  0  0  0  0  0  0  0  0  0  0  0
  1  2  2  0
  2  3  1  0
  2  4  1  0
  4  5  1  0
  5  6  1  0
  6  7  2  0
  7  8  1  0
  8  9  2  0
  9 10  1  0
 10 11  2  0
  4 12  1  0
 12 13  1  0
 13 14  2  0
 13 15  1  0
 15 16  2  0
 16 17  1  0
 17 18  2  0
 11  6  1  0
 17 12  1  0
  3 19  1  0
  4 20  1  1
  5 21  1  0
  5 22  1  0
  7 23  1  0
  8 24  1  0
  9 25  1  0
 10 26  1  0
 11 27  1  0
 12 28  1  0
 15 29  1  0
 16 30  1  0
M  CHG  1  12   1
M  END
>  <UniqueID>  (78) 
77

>  <SMILES>  (78) 
O=C(O)[C@H](Cc1ccccc1)[NH+]1C(=O)C=CC1=O

>  <Energy>  (78) 
50.26837378895254

>  <Genealogy>  (78) 
O=C(O)C(Cc1ccccc1)[NH+]1C(=O)C=CC1=O (protonated)
O=C(O)[C@H](Cc1ccccc1)[NH+]1C(=O)C=CC1=O (chirality)
O=C(O)[C@H](Cc1ccccc1)[NH+]1C(=O)C=CC1=O (3D coordinates assigned)
O=C(O)[C@H](Cc1ccccc1)[NH+]1C(=O)C=CC1=O (nonaromatic ring conformer: 50.26837378895254 kcal/mol)

$$$$
untitled_line_78
     RDKit          3D

 40 43  0  0  0  0  0  0  0  0999 V2000
    1.5651   -1.8575   -0.0618 O   0  0  0  0  0  0  0  0  0  0  0  0
    0.7750   -0.9264    0.2491 C   0  0  0  0  0  0  0  0  0  0  0  0
    1.1291   -0.0290    1.2528 O   0  0  0  0  0  0  0  0  0  0  0  0
   -0.5629   -0.8049   -0.4558 C   0  0  2  0  0  0  0  0  0  0  0  0
   -0.7736    0.6228   -1.0118 C   0  0  0  0  0  0  0  0  0  0  0  0
    0.1998    0.9347   -2.1144 C   0  0  0  0  0  0  0  0  0  0  0  0
    0.1352    0.4693   -3.4247 C   0  0  0  0  0  0  0  0  0  0  0  0
    1.2106    0.8886   -4.1291 N   0  0  0  0  0  0  0  0  0  0  0  0
    1.9577    1.6078   -3.2738 C   0  0  0  0  0  0  0  0  0  0  0  0
    3.1742    2.2355   -3.5386 C   0  0  0  0  0  0  0  0  0  0  0  0
    3.7978    2.9315   -2.4873 C   0  0  0  0  0  0  0  0  0  0  0  0
    3.1988    2.9837   -1.2094 C   0  0  0  0  0  0  0  0  0  0  0  0
    1.9709    2.3404   -0.9704 C   0  0  0  0  0  0  0  0  0  0  0  0
    1.3757    1.6571   -2.0322 C   0  0  0  0  0  0  0  0  0  0  0  0
   -1.7059   -1.2321    0.3969 N   0  0  0  0  0  4  0  0  0  0  0  0
   -1.7562   -0.5795    1.6880 C   0  0  0  0  0  0  0  0  0  0  0  0
   -1.9878    0.6499    1.8389 O   0  0  0  0  0  0  0  0  0  0  0  0
   -1.6013   -1.5187    2.7885 C   0  0  0  0  0  0  0  0  0  0  0  0
   -1.5722   -1.3152    4.1675 C   0  0  0  0  0  0  0  0  0  0  0  0
   -1.4193   -2.4413    4.9965 C   0  0  0  0  0  0  0  0  0  0  0  0
   -1.3051   -3.7311    4.4334 C   0  0  0  0  0  0  0  0  0  0  0  0
   -1.3432   -3.9030    3.0379 C   0  0  0  0  0  0  0  0  0  0  0  0
   -1.4920   -2.7665    2.2439 C   0  0  0  0  0  0  0  0  0  0  0  0
   -1.5748   -2.6146    0.7995 C   0  0  0  0  0  0  0  0  0  0  0  0
   -1.5684   -3.5764   -0.0153 O   0  0  0  0  0  0  0  0  0  0  0  0
    2.0183   -0.1083    1.7310 H   0  0  0  0  0  0  0  0  0  0  0  0
   -0.5370   -1.4813   -1.3426 H   0  0  0  0  0  0  0  0  0  0  0  0
   -1.8011    0.7102   -1.4259 H   0  0  0  0  0  0  0  0  0  0  0  0
   -0.6790    1.3803   -0.2069 H   0  0  0  0  0  0  0  0  0  0  0  0
   -0.6499   -0.1528   -3.8345 H   0  0  0  0  0  0  0  0  0  0  0  0
    1.4202    0.6830   -5.1312 H   0  0  0  0  0  0  0  0  0  0  0  0
    3.6265    2.1881   -4.5208 H   0  0  0  0  0  0  0  0  0  0  0  0
    4.7430    3.4298   -2.6590 H   0  0  0  0  0  0  0  0  0  0  0  0
    3.6874    3.5229   -0.4083 H   0  0  0  0  0  0  0  0  0  0  0  0
    1.5084    2.3826    0.0062 H   0  0  0  0  0  0  0  0  0  0  0  0
   -2.6203   -1.1091   -0.0979 H   0  0  0  0  0  0  0  0  0  0  0  0
   -1.6637   -0.3223    4.5882 H   0  0  0  0  0  0  0  0  0  0  0  0
   -1.3909   -2.3183    6.0713 H   0  0  0  0  0  0  0  0  0  0  0  0
   -1.1893   -4.5922    5.0786 H   0  0  0  0  0  0  0  0  0  0  0  0
   -1.2596   -4.8871    2.5954 H   0  0  0  0  0  0  0  0  0  0  0  0
  1  2  2  0
  2  3  1  0
  2  4  1  0
  4  5  1  0
  5  6  1  0
  6  7  2  0
  7  8  1  0
  8  9  1  0
  9 10  2  0
 10 11  1  0
 11 12  2  0
 12 13  1  0
 13 14  2  0
  4 15  1  0
 15 16  1  0
 16 17  2  0
 16 18  1  0
 18 19  2  0
 19 20  1  0
 20 21  2  0
 21 22  1  0
 22 23  2  0
 23 24  1  0
 24 25  2  0
 14  6  1  0
 24 15  1  0
 14  9  1  0
 23 18  1  0
  3 26  1  0
  4 27  1  6
  5 28  1  0
  5 29  1  0
  7 30  1  0
  8 31  1  0
 10 32  1  0
 11 33  1  0
 12 34  1  0
 13 35  1  0
 15 36  1  0
 19 37  1  0
 20 38  1  0
 21 39  1  0
 22 40  1  0
M  CHG  1  15   1
M  END
>  <UniqueID>  (79) 
78

>  <SMILES>  (79) 
O=C(O)[C@H](Cc1c[nH]c2ccccc12)[NH+]1C(=O)c2ccccc2C1=O

>  <Energy>  (79) 
103.71044026446906

>  <Genealogy>  (79) 
O=C(O)[C@H](Cc1c[nH]c2ccccc12)[NH+]1C(=O)c2ccccc2C1=O (protonated)
O=C(O)[C@H](Cc1c[nH]c2ccccc12)[NH+]1C(=O)c2ccccc2C1=O (3D coordinates assigned)
O=C(O)[C@H](Cc1c[nH]c2ccccc12)[NH+]1C(=O)c2ccccc2C1=O (nonaromatic ring conformer: 103.71044026446906 kcal/mol)

$$$$
untitled_line_79
     RDKit          3D

 58 64  0  0  0  0  0  0  0  0999 V2000
   -3.2596    1.6184    0.5171 O   0  0  0  0  0  0  0  0  0  0  0  0
   -2.1514    1.2815    0.0190 C   0  0  0  0  0  0  0  0  0  0  0  0
   -1.5131    2.1246   -0.8854 O   0  0  0  0  0  0  0  0  0  0  0  0
   -1.5219   -0.0458    0.3806 C   0  0  2  0  0  0  0  0  0  0  0  0
   -2.3628   -1.1859   -0.2517 C   0  0  0  0  0  0  0  0  0  0  0  0
   -2.4477   -1.0539   -1.7480 C   0  0  0  0  0  0  0  0  0  0  0  0
   -1.4540   -1.3969   -2.6601 C   0  0  0  0  0  0  0  0  0  0  0  0
   -1.8321   -1.0705   -3.9166 N   0  0  0  0  0  0  0  0  0  0  0  0
   -3.0522   -0.5173   -3.8054 C   0  0  0  0  0  0  0  0  0  0  0  0
   -3.8443   -0.0074   -4.8331 C   0  0  0  0  0  0  0  0  0  0  0  0
   -5.0913    0.5458   -4.4897 C   0  0  0  0  0  0  0  0  0  0  0  0
   -5.5131    0.5781   -3.1421 C   0  0  0  0  0  0  0  0  0  0  0  0
   -4.6924    0.0571   -2.1254 C   0  0  0  0  0  0  0  0  0  0  0  0
   -3.4619   -0.4867   -2.4963 C   0  0  0  0  0  0  0  0  0  0  0  0
   -1.3876   -0.1916    1.8609 N   0  0  0  0  0  4  0  0  0  0  0  0
   -0.6000    0.8738    2.4412 C   0  0  0  0  0  0  0  0  0  0  0  0
   -1.0019    2.0273    2.4917 O   0  0  0  0  0  0  0  0  0  0  0  0
    0.6851    0.4659    3.0942 C   0  0  2  0  0  0  0  0  0  0  0  0
    1.9585    1.0769    2.4165 C   0  0  0  0  0  0  0  0  0  0  0  0
    1.9811    0.5823    0.9771 C   0  0  0  0  0  0  0  0  0  0  0  0
    2.0072    1.4014   -0.1543 C   0  0  0  0  0  0  0  0  0  0  0  0
    2.0307    0.8097   -1.4247 C   0  0  0  0  0  0  0  0  0  0  0  0
    2.0316   -0.5885   -1.5585 C   0  0  0  0  0  0  0  0  0  0  0  0
    2.0011   -1.4109   -0.4236 C   0  0  0  0  0  0  0  0  0  0  0  0
    1.9732   -0.8214    0.8429 C   0  0  0  0  0  0  0  0  0  0  0  0
    1.9400   -1.5795    2.1625 C   0  0  0  0  0  0  0  0  0  0  0  0
    3.1217   -1.0328    2.9513 C   0  0  0  0  0  0  0  0  0  0  0  0
    4.1335   -1.8049    3.5265 C   0  0  0  0  0  0  0  0  0  0  0  0
    5.1595   -1.1658    4.2363 C   0  0  0  0  0  0  0  0  0  0  0  0
    5.1691    0.2327    4.3704 C   0  0  0  0  0  0  0  0  0  0  0  0
    4.1529    1.0089    3.7961 C   0  0  0  0  0  0  0  0  0  0  0  0
    3.1314    0.3740    3.0861 C   0  0  0  0  0  0  0  0  0  0  0  0
    0.6754   -1.0891    2.9478 C   0  0  2  0  0  0  0  0  0  0  0  0
   -0.6197   -1.3555    2.2414 C   0  0  0  0  0  0  0  0  0  0  0  0
   -1.0638   -2.4894    2.1423 O   0  0  0  0  0  0  0  0  0  0  0  0
   -1.9251    3.0117   -1.1482 H   0  0  0  0  0  0  0  0  0  0  0  0
   -0.5170   -0.0778   -0.0869 H   0  0  0  0  0  0  0  0  0  0  0  0
   -1.8973   -2.1702   -0.0560 H   0  0  0  0  0  0  0  0  0  0  0  0
   -3.3814   -1.2043    0.1916 H   0  0  0  0  0  0  0  0  0  0  0  0
   -0.5040   -1.8521   -2.4146 H   0  0  0  0  0  0  0  0  0  0  0  0
   -1.2797   -1.2106   -4.7916 H   0  0  0  0  0  0  0  0  0  0  0  0
   -3.5107   -0.0330   -5.8624 H   0  0  0  0  0  0  0  0  0  0  0  0
   -5.7307    0.9507   -5.2632 H   0  0  0  0  0  0  0  0  0  0  0  0
   -6.4740    1.0071   -2.8896 H   0  0  0  0  0  0  0  0  0  0  0  0
   -5.0120    0.0801   -1.0922 H   0  0  0  0  0  0  0  0  0  0  0  0
   -2.3246   -0.2249    2.3279 H   0  0  0  0  0  0  0  0  0  0  0  0
    0.6533    0.7503    4.1698 H   0  0  0  0  0  0  0  0  0  0  0  0
    2.0042    2.1843    2.5024 H   0  0  0  0  0  0  0  0  0  0  0  0
    2.0065    2.4790   -0.0545 H   0  0  0  0  0  0  0  0  0  0  0  0
    2.0479    1.4343   -2.3083 H   0  0  0  0  0  0  0  0  0  0  0  0
    2.0503   -1.0340   -2.5446 H   0  0  0  0  0  0  0  0  0  0  0  0
    1.9948   -2.4878   -0.5305 H   0  0  0  0  0  0  0  0  0  0  0  0
    1.9692   -2.6837    2.0373 H   0  0  0  0  0  0  0  0  0  0  0  0
    4.1280   -2.8827    3.4277 H   0  0  0  0  0  0  0  0  0  0  0  0
    5.9490   -1.7542    4.6856 H   0  0  0  0  0  0  0  0  0  0  0  0
    5.9660    0.7142    4.9221 H   0  0  0  0  0  0  0  0  0  0  0  0
    4.1622    2.0858    3.9038 H   0  0  0  0  0  0  0  0  0  0  0  0
    0.6455   -1.5660    3.9532 H   0  0  0  0  0  0  0  0  0  0  0  0
  1  2  2  0
  2  3  1  0
  2  4  1  0
  4  5  1  0
  5  6  1  0
  6  7  2  0
  7  8  1  0
  8  9  1  0
  9 10  2  0
 10 11  1  0
 11 12  2  0
 12 13  1  0
 13 14  2  0
  4 15  1  0
 15 16  1  0
 16 17  2  0
 16 18  1  0
 18 19  1  0
 19 20  1  0
 20 21  2  0
 21 22  1  0
 22 23  2  0
 23 24  1  0
 24 25  2  0
 25 26  1  0
 26 27  1  0
 27 28  2  0
 28 29  1  0
 29 30  2  0
 30 31  1  0
 31 32  2  0
 26 33  1  0
 33 34  1  0
 34 35  2  0
 14  6  1  0
 34 15  1  0
 14  9  1  0
 33 18  1  0
 32 19  1  0
 25 20  1  0
 32 27  1  0
  3 36  1  0
  4 37  1  6
  5 38  1  0
  5 39  1  0
  7 40  1  0
  8 41  1  0
 10 42  1  0
 11 43  1  0
 12 44  1  0
 13 45  1  0
 15 46  1  0
 18 47  1  1
 19 48  1  0
 21 49  1  0
 22 50  1  0
 23 51  1  0
 24 52  1  0
 26 53  1  0
 28 54  1  0
 29 55  1  0
 30 56  1  0
 31 57  1  0
 33 58  1  1
M  CHG  1  15   1
M  END
>  <UniqueID>  (80) 
79

>  <SMILES>  (80) 
O=C(O)[C@H](Cc1c[nH]c2ccccc12)[NH+]1C(=O)[C@H]2C3c4ccccc4C(c4ccccc43)[C@H]2C1=O

>  <Energy>  (80) 
133.28559952824313

>  <Genealogy>  (80) 
O=C(O)C(Cc1c[nH]c2ccccc12)[NH+]1C(=O)C2C3c4ccccc4C(c4ccccc43)[C@@H]2C1=O (protonated)
O=C(O)[C@H](Cc1c[nH]c2ccccc12)[NH+]1C(=O)[C@H]2C3c4ccccc4C(c4ccccc43)[C@H]2C1=O (chirality)
O=C(O)[C@H](Cc1c[nH]c2ccccc12)[NH+]1C(=O)[C@H]2C3c4ccccc4C(c4ccccc43)[C@H]2C1=O (3D coordinates assigned)
O=C(O)[C@H](Cc1c[nH]c2ccccc12)[NH+]1C(=O)[C@H]2C3c4ccccc4C(c4ccccc43)[C@H]2C1=O (nonaromatic ring conformer: 133.28559952824313 kcal/mol)

$$$$
untitled_line_80
     RDKit          3D

 28 29  0  0  0  0  0  0  0  0999 V2000
   -1.9847   -1.6734    0.7477 N   0  0  0  0  0  4  0  0  0  0  0  0
   -1.8556   -0.2108    0.7984 C   0  0  1  0  0  0  0  0  0  0  0  0
   -1.3927    0.3616   -0.5567 C   0  0  0  0  0  0  0  0  0  0  0  0
   -0.0017   -0.0840   -0.9038 C   0  0  0  0  0  0  0  0  0  0  0  0
    0.3482   -1.1193   -1.7657 C   0  0  0  0  0  0  0  0  0  0  0  0
    1.6916   -1.2753   -1.7947 N   0  0  0  0  0  0  0  0  0  0  0  0
    2.1911   -0.3534   -0.9531 C   0  0  0  0  0  0  0  0  0  0  0  0
    3.5316   -0.1342   -0.6384 C   0  0  0  0  0  0  0  0  0  0  0  0
    3.8321    0.8833    0.2859 C   0  0  0  0  0  0  0  0  0  0  0  0
    2.7979    1.6483    0.8698 C   0  0  0  0  0  0  0  0  0  0  0  0
    1.4537    1.4038    0.5343 C   0  0  0  0  0  0  0  0  0  0  0  0
    1.1877    0.3908   -0.3872 C   0  0  0  0  0  0  0  0  0  0  0  0
   -3.1700    0.4112    1.1859 C   0  0  0  0  0  0  0  0  0  0  0  0
   -3.2317    1.1935    2.1721 O   0  0  0  0  0  0  0  0  0  0  0  0
   -4.3170    0.1377    0.4459 O   0  0  0  0  0  0  0  0  0  0  0  0
   -2.3675   -2.0275    1.6548 H   0  0  0  0  0  0  0  0  0  0  0  0
   -2.6223   -1.9632   -0.0297 H   0  0  0  0  0  0  0  0  0  0  0  0
   -1.0463   -2.1112    0.6041 H   0  0  0  0  0  0  0  0  0  0  0  0
   -1.1005    0.0537    1.5742 H   0  0  0  0  0  0  0  0  0  0  0  0
   -2.0935    0.0513   -1.3625 H   0  0  0  0  0  0  0  0  0  0  0  0
   -1.4042    1.4728   -0.5162 H   0  0  0  0  0  0  0  0  0  0  0  0
   -0.3432   -1.7309   -2.3306 H   0  0  0  0  0  0  0  0  0  0  0  0
    2.2273   -1.9782   -2.3509 H   0  0  0  0  0  0  0  0  0  0  0  0
    4.3168   -0.7280   -1.0882 H   0  0  0  0  0  0  0  0  0  0  0  0
    4.8624    1.0797    0.5525 H   0  0  0  0  0  0  0  0  0  0  0  0
    3.0409    2.4272    1.5807 H   0  0  0  0  0  0  0  0  0  0  0  0
    0.6561    1.9847    0.9789 H   0  0  0  0  0  0  0  0  0  0  0  0
   -5.2063    0.5550    0.6928 H   0  0  0  0  0  0  0  0  0  0  0  0
  1  2  1  0
  2  3  1  0
  3  4  1  0
  4  5  2  0
  5  6  1  0
  6  7  1  0
  7  8  2  0
  8  9  1  0
  9 10  2  0
 10 11  1  0
 11 12  2  0
  2 13  1  0
 13 14  2  0
 13 15  1  0
 12  4  1  0
 12  7  1  0
  1 16  1  0
  1 17  1  0
  1 18  1  0
  2 19  1  1
  3 20  1  0
  3 21  1  0
  5 22  1  0
  6 23  1  0
  8 24  1  0
  9 25  1  0
 10 26  1  0
 11 27  1  0
 15 28  1  0
M  CHG  1   1   1
M  END
>  <UniqueID>  (81) 
80

>  <SMILES>  (81) 
[NH3+][C@@H](Cc1c[nH]c2ccccc12)C(=O)O

>  <Energy>  (81) 
56.88605051086348

>  <Genealogy>  (81) 
[NH3+][C@@H](Cc1c[nH]c2ccccc12)C(=O)O (protonated)
[NH3+][C@@H](Cc1c[nH]c2ccccc12)C(=O)O (3D coordinates assigned)
[NH3+][C@@H](Cc1c[nH]c2ccccc12)C(=O)O (optimized conformer: 56.88605051086348 kcal/mol)

$$$$
