EMPTY MOLECULE DESCRIBING GYPSUM-DL PARAMETERS
     RDKit          2D

  0  0  0  0  0  0  0  0  0  0999 V2000
M  END
>  <source>  (1) 
/Users/jake/Desktop/gypsum_dl-1.1.7/jake_test/three_ligs.smi

>  <output_folder>  (1) 
./

>  <separate_output_files>  (1) 
False

>  <add_pdb_output>  (1) 
False

>  <add_html_output>  (1) 
False

>  <num_processors>  (1) 
1

>  <start_time>  (1) 
0

>  <end_time>  (1) 
0

>  <run_time>  (1) 
0

>  <min_ph>  (1) 
6.4

>  <max_ph>  (1) 
8.4

>  <pka_precision>  (1) 
1.0

>  <thoroughness>  (1) 
3

>  <max_variants_per_compound>  (1) 
5

>  <second_embed>  (1) 
False

>  <2d_output_only>  (1) 
False

>  <skip_optimize_geometry>  (1) 
False

>  <skip_alternate_ring_conformations>  (1) 
False

>  <skip_adding_hydrogen>  (1) 
False

>  <skip_making_tautomers>  (1) 
False

>  <skip_enumerate_chiral_mol>  (1) 
False

>  <skip_enumerate_double_bonds>  (1) 
False

>  <let_tautomers_change_chirality>  (1) 
False

>  <use_durrant_lab_filters>  (1) 
False

>  <job_manager>  (1) 
multiprocessing

>  <cache_prerun>  (1) 
False

>  <test>  (1) 
False

>  <Parallelizer>  (1) 
<gypsum_dl.Parallelizer.Parallelizer object at 0x81a052e48>

$$$$
ac05
     RDKit          3D

 79 83  0  0  0  0  0  0  0  0999 V2000
   -0.9289    4.9409   -3.9272 C   0  0  0  0  0  0  0  0  0  0  0  0
    0.2421    4.2585   -3.4920 O   0  0  0  0  0  0  0  0  0  0  0  0
    0.3084    3.4448   -2.3498 C   0  0  0  0  0  0  0  0  0  0  0  0
   -0.7808    3.2944   -1.4766 C   0  0  0  0  0  0  0  0  0  0  0  0
   -0.6918    2.4393   -0.3784 C   0  0  0  0  0  0  0  0  0  0  0  0
    0.4895    1.7223   -0.1135 C   0  0  0  0  0  0  0  0  0  0  0  0
    0.5253    0.7757    1.0404 C   0  0  0  0  0  0  0  0  0  0  0  0
   -0.5160    0.5984    1.7902 N   0  0  0  0  0  0  0  0  0  0  0  0
   -0.2413   -0.3417    2.7814 N   0  0  0  0  0  4  0  0  0  0  0  0
   -1.2424   -0.7632    3.7711 C   0  0  0  0  0  0  0  0  0  0  0  0
   -0.7287   -0.4922    5.2048 C   0  0  0  0  0  0  0  0  0  0  0  0
   -1.8326   -0.1623    6.2262 C   0  0  0  0  0  0  0  0  0  0  0  0
   -3.1337   -0.9781    6.1146 C   0  0  0  0  0  0  0  0  0  0  0  0
   -2.9313   -2.4568    5.7455 C   0  0  0  0  0  0  0  0  0  0  0  0
   -2.9082   -2.6786    4.2246 C   0  0  0  0  0  0  0  0  0  0  0  0
   -1.5939   -2.2530    3.5585 C   0  0  0  0  0  0  0  0  0  0  0  0
    0.9727   -0.7686    2.6609 C   0  0  0  0  0  0  0  0  0  0  0  0
    1.5393   -1.7199    3.5079 O   0  0  0  0  0  0  0  0  0  0  0  0
    1.6724   -0.1114    1.5060 C   0  0  0  0  0  0  0  0  0  0  0  0
    2.8758    0.6947    2.0228 C   0  0  0  0  0  0  0  0  0  0  0  0
    2.0629   -1.1785    0.4688 C   0  0  0  0  0  0  0  0  0  0  0  0
    1.5895    1.9084   -0.9704 C   0  0  0  0  0  0  0  0  0  0  0  0
    1.4968    2.7482   -2.0963 C   0  0  0  0  0  0  0  0  0  0  0  0
    2.5539    2.8952   -3.0070 O   0  0  0  0  0  0  0  0  0  0  0  0
    3.7442    2.1082   -3.0182 C   0  0  0  0  0  0  0  0  0  0  0  0
    4.4739    2.2787   -4.3560 C   0  0  0  0  0  0  0  0  0  0  0  0
    3.5737    2.0505   -5.5884 C   0  0  0  0  0  0  0  0  0  0  0  0
    3.3465    0.5696   -5.9388 C   0  0  0  0  0  0  0  0  0  0  0  0
    2.7308   -0.1597   -4.8770 O   0  0  0  0  0  0  0  0  0  0  0  0
    1.4092   -0.0071   -4.4274 C   0  0  0  0  0  0  0  0  0  0  0  0
    1.0333   -0.6746   -3.2573 C   0  0  0  0  0  0  0  0  0  0  0  0
   -0.2462   -0.5112   -2.7218 C   0  0  0  0  0  0  0  0  0  0  0  0
   -1.1817    0.3240   -3.3561 C   0  0  0  0  0  0  0  0  0  0  0  0
   -2.5206    0.5620   -2.7681 C   0  0  0  0  0  0  0  0  0  0  0  0
   -3.4749    1.3240   -3.3382 N   0  0  0  0  0  0  0  0  0  0  0  0
   -4.4867    1.3105   -2.4823 N   0  0  0  0  0  0  0  0  0  0  0  0
   -4.1737    0.5764   -1.4255 N   0  0  0  0  0  2  0  0  0  0  0  0
   -2.9521    0.0997   -1.5803 N   0  0  0  0  0  4  0  0  0  0  0  0
   -0.8181    0.9603   -4.5559 C   0  0  0  0  0  0  0  0  0  0  0  0
    0.4627    0.7934   -5.0914 C   0  0  0  0  0  0  0  0  0  0  0  0
   -1.7478    4.2136   -4.1121 H   0  0  0  0  0  0  0  0  0  0  0  0
   -1.2427    5.6846   -3.1653 H   0  0  0  0  0  0  0  0  0  0  0  0
   -0.7063    5.4737   -4.8738 H   0  0  0  0  0  0  0  0  0  0  0  0
   -1.7120    3.8168   -1.6504 H   0  0  0  0  0  0  0  0  0  0  0  0
   -1.5615    2.3318    0.2575 H   0  0  0  0  0  0  0  0  0  0  0  0
   -2.1571   -0.1541    3.5944 H   0  0  0  0  0  0  0  0  0  0  0  0
   -0.0304    0.3734    5.1871 H   0  0  0  0  0  0  0  0  0  0  0  0
   -0.1355   -1.3569    5.5744 H   0  0  0  0  0  0  0  0  0  0  0  0
   -1.4093   -0.3005    7.2457 H   0  0  0  0  0  0  0  0  0  0  0  0
   -2.0935    0.9153    6.1339 H   0  0  0  0  0  0  0  0  0  0  0  0
   -3.6477   -0.9284    7.0999 H   0  0  0  0  0  0  0  0  0  0  0  0
   -3.8197   -0.4886    5.3893 H   0  0  0  0  0  0  0  0  0  0  0  0
   -3.7928   -3.0300    6.1521 H   0  0  0  0  0  0  0  0  0  0  0  0
   -2.0160   -2.8698    6.2220 H   0  0  0  0  0  0  0  0  0  0  0  0
   -3.7622   -2.1542    3.7428 H   0  0  0  0  0  0  0  0  0  0  0  0
   -3.0502   -3.7643    4.0307 H   0  0  0  0  0  0  0  0  0  0  0  0
   -0.7707   -2.9067    3.9208 H   0  0  0  0  0  0  0  0  0  0  0  0
   -1.6969   -2.4418    2.4669 H   0  0  0  0  0  0  0  0  0  0  0  0
    2.4962   -2.0257    3.3870 H   0  0  0  0  0  0  0  0  0  0  0  0
    3.6082    0.0201    2.5145 H   0  0  0  0  0  0  0  0  0  0  0  0
    3.4055    1.2169    1.2046 H   0  0  0  0  0  0  0  0  0  0  0  0
    2.5465    1.4541    2.7651 H   0  0  0  0  0  0  0  0  0  0  0  0
    2.7384   -1.9319    0.9267 H   0  0  0  0  0  0  0  0  0  0  0  0
    1.1595   -1.7047    0.0910 H   0  0  0  0  0  0  0  0  0  0  0  0
    2.5989   -0.7418   -0.3939 H   0  0  0  0  0  0  0  0  0  0  0  0
    2.5140    1.3989   -0.7857 H   0  0  0  0  0  0  0  0  0  0  0  0
    4.4092    2.4372   -2.1909 H   0  0  0  0  0  0  0  0  0  0  0  0
    3.5088    1.0372   -2.8602 H   0  0  0  0  0  0  0  0  0  0  0  0
    5.3509    1.5965   -4.3914 H   0  0  0  0  0  0  0  0  0  0  0  0
    4.8639    3.3189   -4.3997 H   0  0  0  0  0  0  0  0  0  0  0  0
    2.6057    2.5783   -5.4711 H   0  0  0  0  0  0  0  0  0  0  0  0
    4.0733    2.5207   -6.4630 H   0  0  0  0  0  0  0  0  0  0  0  0
    4.3291    0.1006   -6.1578 H   0  0  0  0  0  0  0  0  0  0  0  0
    2.7346    0.4850   -6.8620 H   0  0  0  0  0  0  0  0  0  0  0  0
    1.7480   -1.3049   -2.7443 H   0  0  0  0  0  0  0  0  0  0  0  0
   -0.4870   -1.0274   -1.8038 H   0  0  0  0  0  0  0  0  0  0  0  0
   -2.4556   -0.4986   -0.8849 H   0  0  0  0  0  0  0  0  0  0  0  0
   -1.5189    1.6031   -5.0737 H   0  0  0  0  0  0  0  0  0  0  0  0
    0.7056    1.2998   -6.0144 H   0  0  0  0  0  0  0  0  0  0  0  0
  1  2  1  0
  2  3  1  0
  3  4  2  0
  4  5  1  0
  5  6  2  0
  6  7  1  0
  7  8  2  0
  8  9  1  0
  9 10  1  0
 10 11  1  0
 11 12  1  0
 12 13  1  0
 13 14  1  0
 14 15  1  0
 15 16  1  0
  9 17  2  0
 17 18  1  0
 17 19  1  0
 19 20  1  0
 19 21  1  0
  6 22  1  0
 22 23  2  0
 23 24  1  0
 24 25  1  0
 25 26  1  0
 26 27  1  0
 27 28  1  0
 28 29  1  0
 29 30  1  0
 30 31  2  0
 31 32  1  0
 32 33  2  0
 33 34  1  0
 34 35  1  0
 35 36  2  0
 36 37  1  0
 37 38  1  0
 33 39  1  0
 39 40  2  0
 23  3  1  0
 40 30  1  0
 19  7  1  0
 38 34  2  0
 16 10  1  0
  1 41  1  0
  1 42  1  0
  1 43  1  0
  4 44  1  0
  5 45  1  0
 10 46  1  0
 11 47  1  0
 11 48  1  0
 12 49  1  0
 12 50  1  0
 13 51  1  0
 13 52  1  0
 14 53  1  0
 14 54  1  0
 15 55  1  0
 15 56  1  0
 16 57  1  0
 16 58  1  0
 18 59  1  0
 20 60  1  0
 20 61  1  0
 20 62  1  0
 21 63  1  0
 21 64  1  0
 21 65  1  0
 22 66  1  0
 25 67  1  0
 25 68  1  0
 26 69  1  0
 26 70  1  0
 27 71  1  0
 27 72  1  0
 28 73  1  0
 28 74  1  0
 31 75  1  0
 32 76  1  0
 38 77  1  0
 39 78  1  0
 40 79  1  0
M  CHG  3   9   1  37  -1  38   1
M  END
>  <UniqueID>  (2) 
1

>  <SMILES>  (2) 
COc1ccc(C2=N[N+](C3CCCCCC3)=C(O)C2(C)C)cc1OCCCCOc1ccc(-c2nn[n-][nH+]2)cc1

>  <Energy>  (2) 
129.8996090896894

>  <Genealogy>  (2) 
COc1ccc(C2=N[NH+](C3CCCCCC3)C(=O)C2(C)C)cc1OCCCCOc1ccc(-c2nn[n-][nH+]2)cc1 (protonated)
COc1ccc(C2=N[N+](C3CCCCCC3)=C(O)C2(C)C)cc1OCCCCOc1ccc(-c2nn[n-][nH+]2)cc1 (tautomer)
COc1ccc(C2=N[N+](C3CCCCCC3)=C(O)C2(C)C)cc1OCCCCOc1ccc(-c2nn[n-][nH+]2)cc1 (3D coordinates assigned)
COc1ccc(C2=N[N+](C3CCCCCC3)=C(O)C2(C)C)cc1OCCCCOc1ccc(-c2nn[n-][nH+]2)cc1 (nonaromatic ring conformer: 129.8996090896894 kcal/mol)

$$$$
ac05
     RDKit          3D

 78 82  0  0  0  0  0  0  0  0999 V2000
    0.5047    6.7949    1.9245 C   0  0  0  0  0  0  0  0  0  0  0  0
    0.7397    5.4040    2.1235 O   0  0  0  0  0  0  0  0  0  0  0  0
    0.0441    4.3773    1.4646 C   0  0  0  0  0  0  0  0  0  0  0  0
   -0.9754    4.6425    0.5351 C   0  0  0  0  0  0  0  0  0  0  0  0
   -1.6448    3.5952   -0.0991 C   0  0  0  0  0  0  0  0  0  0  0  0
   -1.3200    2.2537    0.1784 C   0  0  0  0  0  0  0  0  0  0  0  0
   -2.0573    1.1584   -0.5246 C   0  0  0  0  0  0  0  0  0  0  0  0
   -2.9370    1.4416   -1.4402 N   0  0  0  0  0  0  0  0  0  0  0  0
   -3.5191    0.2849   -1.9551 N   0  0  0  0  0  0  0  0  0  0  0  0
   -4.6170    0.2671   -2.9241 C   0  0  0  0  0  0  0  0  0  0  0  0
   -4.1950    1.0084   -4.2158 C   0  0  0  0  0  0  0  0  0  0  0  0
   -4.4964    2.5178   -4.2317 C   0  0  0  0  0  0  0  0  0  0  0  0
   -5.9123    2.8217   -4.7470 C   0  0  0  0  0  0  0  0  0  0  0  0
   -7.0149    2.5446   -3.7183 C   0  0  0  0  0  0  0  0  0  0  0  0
   -7.0494    1.0889   -3.2274 C   0  0  0  0  0  0  0  0  0  0  0  0
   -5.9056    0.7804   -2.2467 C   0  0  0  0  0  0  0  0  0  0  0  0
   -2.9679   -0.8184   -1.2697 C   0  0  0  0  0  0  0  0  0  0  0  0
   -3.3126   -2.0152   -1.4665 O   0  0  0  0  0  0  0  0  0  0  0  0
   -1.9344   -0.3544   -0.2929 C   0  0  0  0  0  0  0  0  0  0  0  0
   -0.5631   -0.9157   -0.7115 C   0  0  0  0  0  0  0  0  0  0  0  0
   -2.3458   -0.7757    1.1286 C   0  0  0  0  0  0  0  0  0  0  0  0
   -0.3005    1.9974    1.1129 C   0  0  0  0  0  0  0  0  0  0  0  0
    0.3845    3.0495    1.7528 C   0  0  0  0  0  0  0  0  0  0  0  0
    1.4118    2.8130    2.6808 O   0  0  0  0  0  0  0  0  0  0  0  0
    1.8629    1.5188    3.0735 C   0  0  0  0  0  0  0  0  0  0  0  0
    3.0155    1.6597    4.0697 C   0  0  0  0  0  0  0  0  0  0  0  0
    3.4202    0.3183    4.7013 C   0  0  0  0  0  0  0  0  0  0  0  0
    4.0429   -0.6499    3.6935 C   0  0  0  0  0  0  0  0  0  0  0  0
    4.5049   -1.8112    4.3793 O   0  0  0  0  0  0  0  0  0  0  0  0
    5.0739   -2.9291    3.7513 C   0  0  0  0  0  0  0  0  0  0  0  0
    5.4664   -4.0109    4.5470 C   0  0  0  0  0  0  0  0  0  0  0  0
    6.0235   -5.1548    3.9683 C   0  0  0  0  0  0  0  0  0  0  0  0
    6.2003   -5.2335    2.5771 C   0  0  0  0  0  0  0  0  0  0  0  0
    6.7796   -6.4466    1.9630 C   0  0  0  0  0  0  0  0  0  0  0  0
    6.9854   -6.6078    0.6396 N   0  0  0  0  0  0  0  0  0  0  0  0
    7.5083   -7.8172    0.5201 N   0  0  0  0  0  2  0  0  0  0  0  0
    7.6136   -8.3635    1.7189 N   0  0  0  0  0  4  0  0  0  0  0  0
    7.1681   -7.5393    2.6505 N   0  0  0  0  0  0  0  0  0  0  0  0
    5.8141   -4.1449    1.7774 C   0  0  0  0  0  0  0  0  0  0  0  0
    5.2568   -3.0012    2.3574 C   0  0  0  0  0  0  0  0  0  0  0  0
   -0.5427    7.0490    2.1951 H   0  0  0  0  0  0  0  0  0  0  0  0
    0.7038    7.0675    0.8661 H   0  0  0  0  0  0  0  0  0  0  0  0
    1.1913    7.3754    2.5742 H   0  0  0  0  0  0  0  0  0  0  0  0
   -1.2597    5.6575    0.2941 H   0  0  0  0  0  0  0  0  0  0  0  0
   -2.4239    3.8431   -0.8090 H   0  0  0  0  0  0  0  0  0  0  0  0
   -4.8030   -0.7901   -3.2193 H   0  0  0  0  0  0  0  0  0  0  0  0
   -4.6772    0.5211   -5.0913 H   0  0  0  0  0  0  0  0  0  0  0  0
   -3.1025    0.8647   -4.3664 H   0  0  0  0  0  0  0  0  0  0  0  0
   -4.3304    2.9777   -3.2337 H   0  0  0  0  0  0  0  0  0  0  0  0
   -3.7775    2.9992   -4.9303 H   0  0  0  0  0  0  0  0  0  0  0  0
   -5.9607    3.9002   -5.0144 H   0  0  0  0  0  0  0  0  0  0  0  0
   -6.1168    2.2520   -5.6798 H   0  0  0  0  0  0  0  0  0  0  0  0
   -6.9090    3.2397   -2.8569 H   0  0  0  0  0  0  0  0  0  0  0  0
   -7.9912    2.7733   -4.1980 H   0  0  0  0  0  0  0  0  0  0  0  0
   -8.0116    0.9408   -2.6891 H   0  0  0  0  0  0  0  0  0  0  0  0
   -7.0464    0.3821   -4.0860 H   0  0  0  0  0  0  0  0  0  0  0  0
   -5.6854    1.6722   -1.6199 H   0  0  0  0  0  0  0  0  0  0  0  0
   -6.2518   -0.0088   -1.5432 H   0  0  0  0  0  0  0  0  0  0  0  0
    0.2252   -0.7003    0.0337 H   0  0  0  0  0  0  0  0  0  0  0  0
   -0.2479   -0.4890   -1.6894 H   0  0  0  0  0  0  0  0  0  0  0  0
   -0.6143   -2.0215   -0.8140 H   0  0  0  0  0  0  0  0  0  0  0  0
   -3.3456   -0.3625    1.3839 H   0  0  0  0  0  0  0  0  0  0  0  0
   -2.3939   -1.8829    1.2005 H   0  0  0  0  0  0  0  0  0  0  0  0
   -1.6233   -0.4237    1.8895 H   0  0  0  0  0  0  0  0  0  0  0  0
   -0.0274    0.9902    1.3504 H   0  0  0  0  0  0  0  0  0  0  0  0
    2.2148    0.9689    2.1749 H   0  0  0  0  0  0  0  0  0  0  0  0
    1.0233    0.9643    3.5471 H   0  0  0  0  0  0  0  0  0  0  0  0
    3.8918    2.1211    3.5643 H   0  0  0  0  0  0  0  0  0  0  0  0
    2.6974    2.3451    4.8853 H   0  0  0  0  0  0  0  0  0  0  0  0
    4.1629    0.5223    5.5027 H   0  0  0  0  0  0  0  0  0  0  0  0
    2.5347   -0.1574    5.1765 H   0  0  0  0  0  0  0  0  0  0  0  0
    3.2801   -0.9499    2.9441 H   0  0  0  0  0  0  0  0  0  0  0  0
    4.8984   -0.1592    3.1795 H   0  0  0  0  0  0  0  0  0  0  0  0
    5.3341   -3.9665    5.6206 H   0  0  0  0  0  0  0  0  0  0  0  0
    6.3135   -5.9772    4.6099 H   0  0  0  0  0  0  0  0  0  0  0  0
    7.9953   -9.3172    1.9042 H   0  0  0  0  0  0  0  0  0  0  0  0
    5.9396   -4.1791    0.7026 H   0  0  0  0  0  0  0  0  0  0  0  0
    4.9697   -2.1811    1.7138 H   0  0  0  0  0  0  0  0  0  0  0  0
  1  2  1  0
  2  3  1  0
  3  4  2  0
  4  5  1  0
  5  6  2  0
  6  7  1  0
  7  8  2  0
  8  9  1  0
  9 10  1  0
 10 11  1  0
 11 12  1  0
 12 13  1  0
 13 14  1  0
 14 15  1  0
 15 16  1  0
  9 17  1  0
 17 18  2  0
 17 19  1  0
 19 20  1  0
 19 21  1  0
  6 22  1  0
 22 23  2  0
 23 24  1  0
 24 25  1  0
 25 26  1  0
 26 27  1  0
 27 28  1  0
 28 29  1  0
 29 30  1  0
 30 31  2  0
 31 32  1  0
 32 33  2  0
 33 34  1  0
 34 35  2  0
 35 36  1  0
 36 37  1  0
 37 38  2  0
 33 39  1  0
 39 40  2  0
 23  3  1  0
 40 30  1  0
 19  7  1  0
 38 34  1  0
 16 10  1  0
  1 41  1  0
  1 42  1  0
  1 43  1  0
  4 44  1  0
  5 45  1  0
 10 46  1  0
 11 47  1  0
 11 48  1  0
 12 49  1  0
 12 50  1  0
 13 51  1  0
 13 52  1  0
 14 53  1  0
 14 54  1  0
 15 55  1  0
 15 56  1  0
 16 57  1  0
 16 58  1  0
 20 59  1  0
 20 60  1  0
 20 61  1  0
 21 62  1  0
 21 63  1  0
 21 64  1  0
 22 65  1  0
 25 66  1  0
 25 67  1  0
 26 68  1  0
 26 69  1  0
 27 70  1  0
 27 71  1  0
 28 72  1  0
 28 73  1  0
 31 74  1  0
 32 75  1  0
 37 76  1  0
 39 77  1  0
 40 78  1  0
M  CHG  2  36  -1  37   1
M  END
>  <UniqueID>  (3) 
2

>  <SMILES>  (3) 
COc1ccc(C2=NN(C3CCCCCC3)C(=O)C2(C)C)cc1OCCCCOc1ccc(-c2n[n-][nH+]n2)cc1

>  <Energy>  (3) 
133.60945303557665

>  <Genealogy>  (3) 
COc1ccc(C2=NN(C3CCCCCC3)C(=O)C2(C)C)cc1OCCCCOc1ccc(-c2n[n-][nH+]n2)cc1 (protonated)
COc1ccc(C2=NN(C3CCCCCC3)C(=O)C2(C)C)cc1OCCCCOc1ccc(-c2n[n-][nH+]n2)cc1 (3D coordinates assigned)
COc1ccc(C2=NN(C3CCCCCC3)C(=O)C2(C)C)cc1OCCCCOc1ccc(-c2n[n-][nH+]n2)cc1 (nonaromatic ring conformer: 133.60945303557665 kcal/mol)

$$$$
ac05
     RDKit          3D

 78 82  0  0  0  0  0  0  0  0999 V2000
   -0.0040    5.2881    5.0366 C   0  0  0  0  0  0  0  0  0  0  0  0
    0.9399    4.6415    4.1876 O   0  0  0  0  0  0  0  0  0  0  0  0
    0.6001    3.7776    3.1346 C   0  0  0  0  0  0  0  0  0  0  0  0
   -0.7326    3.4421    2.8444 C   0  0  0  0  0  0  0  0  0  0  0  0
   -1.0312    2.5774    1.7912 C   0  0  0  0  0  0  0  0  0  0  0  0
   -0.0101    2.0317    0.9906 C   0  0  0  0  0  0  0  0  0  0  0  0
   -0.3699    1.1053   -0.1279 C   0  0  0  0  0  0  0  0  0  0  0  0
   -1.6086    0.7625   -0.3252 N   0  0  0  0  0  0  0  0  0  0  0  0
   -1.7336   -0.1013   -1.4123 N   0  0  0  0  0  0  0  0  0  0  0  0
   -2.9614   -0.8512   -1.6991 C   0  0  0  0  0  0  0  0  0  0  0  0
   -3.3353   -0.7441   -3.2026 C   0  0  0  0  0  0  0  0  0  0  0  0
   -3.0738   -1.9913   -4.0672 C   0  0  0  0  0  0  0  0  0  0  0  0
   -4.1736   -3.0532   -3.9228 C   0  0  0  0  0  0  0  0  0  0  0  0
   -4.0141   -3.9267   -2.6743 C   0  0  0  0  0  0  0  0  0  0  0  0
   -4.0983   -3.1363   -1.3632 C   0  0  0  0  0  0  0  0  0  0  0  0
   -2.8467   -2.2766   -1.1177 C   0  0  0  0  0  0  0  0  0  0  0  0
   -0.4344   -0.3312   -1.9219 C   0  0  0  0  0  0  0  0  0  0  0  0
   -0.1778   -1.0937   -2.8916 O   0  0  0  0  0  0  0  0  0  0  0  0
    0.5767    0.4308   -1.1272 C   0  0  0  0  0  0  0  0  0  0  0  0
    1.5332   -0.5673   -0.4547 C   0  0  0  0  0  0  0  0  0  0  0  0
    1.3004    1.4323   -2.0425 C   0  0  0  0  0  0  0  0  0  0  0  0
    1.3209    2.3836    1.2806 C   0  0  0  0  0  0  0  0  0  0  0  0
    1.6322    3.2381    2.3568 C   0  0  0  0  0  0  0  0  0  0  0  0
    2.9553    3.5832    2.6860 O   0  0  0  0  0  0  0  0  0  0  0  0
    4.1361    2.9974    2.1305 C   0  0  0  0  0  0  0  0  0  0  0  0
    4.3391    1.5603    2.6302 C   0  0  0  0  0  0  0  0  0  0  0  0
    4.4673    1.5079    4.1584 C   0  0  0  0  0  0  0  0  0  0  0  0
    4.7681    0.0966    4.6794 C   0  0  0  0  0  0  0  0  0  0  0  0
    3.6131   -0.7445    4.5925 O   0  0  0  0  0  0  0  0  0  0  0  0
    3.2586   -1.5753    3.5158 C   0  0  0  0  0  0  0  0  0  0  0  0
    1.9937   -2.1714    3.5417 C   0  0  0  0  0  0  0  0  0  0  0  0
    1.5778   -3.0112    2.5046 C   0  0  0  0  0  0  0  0  0  0  0  0
    2.4262   -3.2728    1.4183 C   0  0  0  0  0  0  0  0  0  0  0  0
    1.9710   -4.1298    0.3039 C   0  0  0  0  0  0  0  0  0  0  0  0
    2.6789   -4.3599   -0.8212 N   0  0  0  0  0  0  0  0  0  0  0  0
    1.9055   -5.1384   -1.5595 N   0  0  0  0  0  2  0  0  0  0  0  0
    0.7775   -5.3665   -0.9097 N   0  0  0  0  0  4  0  0  0  0  0  0
    0.7734   -4.7469    0.2579 N   0  0  0  0  0  0  0  0  0  0  0  0
    3.6986   -2.6791    1.3896 C   0  0  0  0  0  0  0  0  0  0  0  0
    4.1145   -1.8389    2.4279 C   0  0  0  0  0  0  0  0  0  0  0  0
   -0.6072    4.5324    5.5847 H   0  0  0  0  0  0  0  0  0  0  0  0
   -0.6674    5.9481    4.4371 H   0  0  0  0  0  0  0  0  0  0  0  0
    0.5398    5.9103    5.7767 H   0  0  0  0  0  0  0  0  0  0  0  0
   -1.5486    3.8423    3.4294 H   0  0  0  0  0  0  0  0  0  0  0  0
   -2.0712    2.3422    1.6019 H   0  0  0  0  0  0  0  0  0  0  0  0
   -3.7864   -0.3497   -1.1415 H   0  0  0  0  0  0  0  0  0  0  0  0
   -2.7849    0.1110   -3.6534 H   0  0  0  0  0  0  0  0  0  0  0  0
   -4.4092   -0.4682   -3.2854 H   0  0  0  0  0  0  0  0  0  0  0  0
   -2.0770   -2.4322   -3.8647 H   0  0  0  0  0  0  0  0  0  0  0  0
   -3.0661   -1.6643   -5.1305 H   0  0  0  0  0  0  0  0  0  0  0  0
   -5.1796   -2.5818   -3.9320 H   0  0  0  0  0  0  0  0  0  0  0  0
   -4.1250   -3.7234   -4.8080 H   0  0  0  0  0  0  0  0  0  0  0  0
   -4.8306   -4.6816   -2.6783 H   0  0  0  0  0  0  0  0  0  0  0  0
   -3.0546   -4.4866   -2.7254 H   0  0  0  0  0  0  0  0  0  0  0  0
   -4.1776   -3.8733   -0.5321 H   0  0  0  0  0  0  0  0  0  0  0  0
   -5.0232   -2.5170   -1.3384 H   0  0  0  0  0  0  0  0  0  0  0  0
   -1.9353   -2.7875   -1.4963 H   0  0  0  0  0  0  0  0  0  0  0  0
   -2.7107   -2.1772   -0.0177 H   0  0  0  0  0  0  0  0  0  0  0  0
    2.0212   -1.2116   -1.2189 H   0  0  0  0  0  0  0  0  0  0  0  0
    2.3394   -0.0667    0.1110 H   0  0  0  0  0  0  0  0  0  0  0  0
    0.9677   -1.2198    0.2441 H   0  0  0  0  0  0  0  0  0  0  0  0
    2.1056    1.9747   -1.5085 H   0  0  0  0  0  0  0  0  0  0  0  0
    0.5824    2.1797   -2.4492 H   0  0  0  0  0  0  0  0  0  0  0  0
    1.7725    0.8982   -2.8979 H   0  0  0  0  0  0  0  0  0  0  0  0
    2.1194    2.0092    0.6757 H   0  0  0  0  0  0  0  0  0  0  0  0
    5.0094    3.6113    2.4367 H   0  0  0  0  0  0  0  0  0  0  0  0
    4.1038    3.0268    1.0207 H   0  0  0  0  0  0  0  0  0  0  0  0
    3.4856    0.9308    2.3045 H   0  0  0  0  0  0  0  0  0  0  0  0
    5.2654    1.1554    2.1660 H   0  0  0  0  0  0  0  0  0  0  0  0
    3.5266    1.8728    4.6295 H   0  0  0  0  0  0  0  0  0  0  0  0
    5.2942    2.1831    4.4767 H   0  0  0  0  0  0  0  0  0  0  0  0
    5.6590   -0.3455    4.1879 H   0  0  0  0  0  0  0  0  0  0  0  0
    5.0290    0.1901    5.7549 H   0  0  0  0  0  0  0  0  0  0  0  0
    1.3224   -1.9729    4.3656 H   0  0  0  0  0  0  0  0  0  0  0  0
    0.5871   -3.4425    2.5482 H   0  0  0  0  0  0  0  0  0  0  0  0
   -0.0065   -5.9497   -1.2723 H   0  0  0  0  0  0  0  0  0  0  0  0
    4.3717   -2.8559    0.5591 H   0  0  0  0  0  0  0  0  0  0  0  0
    5.0994   -1.4008    2.3596 H   0  0  0  0  0  0  0  0  0  0  0  0
  1  2  1  0
  2  3  1  0
  3  4  2  0
  4  5  1  0
  5  6  2  0
  6  7  1  0
  7  8  2  0
  8  9  1  0
  9 10  1  0
 10 11  1  0
 11 12  1  0
 12 13  1  0
 13 14  1  0
 14 15  1  0
 15 16  1  0
  9 17  1  0
 17 18  2  0
 17 19  1  0
 19 20  1  0
 19 21  1  0
  6 22  1  0
 22 23  2  0
 23 24  1  0
 24 25  1  0
 25 26  1  0
 26 27  1  0
 27 28  1  0
 28 29  1  0
 29 30  1  0
 30 31  2  0
 31 32  1  0
 32 33  2  0
 33 34  1  0
 34 35  2  0
 35 36  1  0
 36 37  1  0
 37 38  2  0
 33 39  1  0
 39 40  2  0
 23  3  1  0
 40 30  1  0
 19  7  1  0
 38 34  1  0
 16 10  1  0
  1 41  1  0
  1 42  1  0
  1 43  1  0
  4 44  1  0
  5 45  1  0
 10 46  1  0
 11 47  1  0
 11 48  1  0
 12 49  1  0
 12 50  1  0
 13 51  1  0
 13 52  1  0
 14 53  1  0
 14 54  1  0
 15 55  1  0
 15 56  1  0
 16 57  1  0
 16 58  1  0
 20 59  1  0
 20 60  1  0
 20 61  1  0
 21 62  1  0
 21 63  1  0
 21 64  1  0
 22 65  1  0
 25 66  1  0
 25 67  1  0
 26 68  1  0
 26 69  1  0
 27 70  1  0
 27 71  1  0
 28 72  1  0
 28 73  1  0
 31 74  1  0
 32 75  1  0
 37 76  1  0
 39 77  1  0
 40 78  1  0
M  CHG  2  36  -1  37   1
M  END
>  <UniqueID>  (4) 
3

>  <SMILES>  (4) 
COc1ccc(C2=NN(C3CCCCCC3)C(=O)C2(C)C)cc1OCCCCOc1ccc(-c2n[n-][nH+]n2)cc1

>  <Energy>  (4) 
133.68770903811347

>  <Genealogy>  (4) 
COc1ccc(C2=NN(C3CCCCCC3)C(=O)C2(C)C)cc1OCCCCOc1ccc(-c2n[n-][nH+]n2)cc1 (protonated)
COc1ccc(C2=NN(C3CCCCCC3)C(=O)C2(C)C)cc1OCCCCOc1ccc(-c2n[n-][nH+]n2)cc1 (3D coordinates assigned)
COc1ccc(C2=NN(C3CCCCCC3)C(=O)C2(C)C)cc1OCCCCOc1ccc(-c2n[n-][nH+]n2)cc1 (nonaromatic ring conformer: 133.68770903811347 kcal/mol)

$$$$
ac05
     RDKit          3D

 79 83  0  0  0  0  0  0  0  0999 V2000
    0.4266   -0.1247   -6.0057 C   0  0  0  0  0  0  0  0  0  0  0  0
    1.1860    0.0515   -4.8160 O   0  0  0  0  0  0  0  0  0  0  0  0
    0.7143   -0.2362   -3.5266 C   0  0  0  0  0  0  0  0  0  0  0  0
   -0.5587   -0.7897   -3.3026 C   0  0  0  0  0  0  0  0  0  0  0  0
   -1.0138   -1.0205   -2.0039 C   0  0  0  0  0  0  0  0  0  0  0  0
   -0.1990   -0.7295   -0.8978 C   0  0  0  0  0  0  0  0  0  0  0  0
   -0.6679   -0.9007    0.5073 C   0  0  0  0  0  0  0  0  0  0  0  0
    0.1598   -0.8142    1.4979 N   0  0  0  0  0  0  0  0  0  0  0  0
   -0.5280   -0.8073    2.7120 N   0  0  0  0  0  4  0  0  0  0  0  0
    0.1054   -0.5792    4.0267 C   0  0  0  0  0  0  0  0  0  0  0  0
    1.6248   -0.2825    3.8785 C   0  0  0  0  0  0  0  0  0  0  0  0
    2.1575    0.6672    4.9663 C   0  0  0  0  0  0  0  0  0  0  0  0
    2.3362    0.0150    6.3418 C   0  0  0  0  0  0  0  0  0  0  0  0
    1.0437   -0.5934    6.9020 C   0  0  0  0  0  0  0  0  0  0  0  0
    0.6942   -1.9262    6.2141 C   0  0  0  0  0  0  0  0  0  0  0  0
   -0.1841   -1.7859    4.9562 C   0  0  0  0  0  0  0  0  0  0  0  0
   -1.7998   -0.8746    2.4852 C   0  0  0  0  0  0  0  0  0  0  0  0
   -2.7628   -0.7907    3.4905 O   0  0  0  0  0  0  0  0  0  0  0  0
   -2.0936   -1.0099    1.0172 C   0  0  0  0  0  0  0  0  0  0  0  0
   -2.9873    0.1496    0.5508 C   0  0  0  0  0  0  0  0  0  0  0  0
   -2.7174   -2.3887    0.7466 C   0  0  0  0  0  0  0  0  0  0  0  0
    1.0880   -0.2069   -1.1304 C   0  0  0  0  0  0  0  0  0  0  0  0
    1.5367    0.0659   -2.4342 C   0  0  0  0  0  0  0  0  0  0  0  0
    2.7775    0.6734   -2.6801 O   0  0  0  0  0  0  0  0  0  0  0  0
    3.6137    1.2547   -1.6818 C   0  0  0  0  0  0  0  0  0  0  0  0
    4.6904    2.1264   -2.3358 C   0  0  0  0  0  0  0  0  0  0  0  0
    4.1309    3.1661   -3.3276 C   0  0  0  0  0  0  0  0  0  0  0  0
    3.4904    4.3918   -2.6526 C   0  0  0  0  0  0  0  0  0  0  0  0
    2.3392    4.0521   -1.8780 O   0  0  0  0  0  0  0  0  0  0  0  0
    1.1066    3.6170   -2.3870 C   0  0  0  0  0  0  0  0  0  0  0  0
    0.1506    3.1556   -1.4796 C   0  0  0  0  0  0  0  0  0  0  0  0
   -1.0719    2.6547   -1.9297 C   0  0  0  0  0  0  0  0  0  0  0  0
   -1.3683    2.6149   -3.3032 C   0  0  0  0  0  0  0  0  0  0  0  0
   -2.6512    2.0301   -3.7658 C   0  0  0  0  0  0  0  0  0  0  0  0
   -3.5594    1.4569   -2.9532 N   0  0  0  0  0  0  0  0  0  0  0  0
   -4.5407    1.0626   -3.7518 N   0  0  0  0  0  0  0  0  0  0  0  0
   -4.2544    1.3757   -5.0058 N   0  0  0  0  0  2  0  0  0  0  0  0
   -3.0807    1.9782   -5.0398 N   0  0  0  0  0  4  0  0  0  0  0  0
   -0.4191    3.1097   -4.2137 C   0  0  0  0  0  0  0  0  0  0  0  0
    0.8048    3.6128   -3.7603 C   0  0  0  0  0  0  0  0  0  0  0  0
    0.1535   -1.1953   -6.1305 H   0  0  0  0  0  0  0  0  0  0  0  0
   -0.4848    0.5068   -5.9650 H   0  0  0  0  0  0  0  0  0  0  0  0
    1.0385    0.1893   -6.8747 H   0  0  0  0  0  0  0  0  0  0  0  0
   -1.2223   -1.0190   -4.1251 H   0  0  0  0  0  0  0  0  0  0  0  0
   -2.0087   -1.4125   -1.8856 H   0  0  0  0  0  0  0  0  0  0  0  0
   -0.3817    0.3191    4.4723 H   0  0  0  0  0  0  0  0  0  0  0  0
    2.2163   -1.2260    3.8484 H   0  0  0  0  0  0  0  0  0  0  0  0
    1.8191    0.2426    2.9203 H   0  0  0  0  0  0  0  0  0  0  0  0
    1.4994    1.5602    5.0527 H   0  0  0  0  0  0  0  0  0  0  0  0
    3.1566    1.0354    4.6397 H   0  0  0  0  0  0  0  0  0  0  0  0
    2.6860    0.8052    7.0435 H   0  0  0  0  0  0  0  0  0  0  0  0
    3.1373   -0.7577    6.2939 H   0  0  0  0  0  0  0  0  0  0  0  0
    1.2115   -0.7958    7.9831 H   0  0  0  0  0  0  0  0  0  0  0  0
    0.2033    0.1324    6.8366 H   0  0  0  0  0  0  0  0  0  0  0  0
    1.6179   -2.4899    5.9615 H   0  0  0  0  0  0  0  0  0  0  0  0
    0.1428   -2.5625    6.9434 H   0  0  0  0  0  0  0  0  0  0  0  0
   -1.2412   -1.7168    5.2935 H   0  0  0  0  0  0  0  0  0  0  0  0
   -0.0905   -2.7291    4.3698 H   0  0  0  0  0  0  0  0  0  0  0  0
   -3.7500   -0.8495    3.2747 H   0  0  0  0  0  0  0  0  0  0  0  0
   -4.0210    0.0131    0.9503 H   0  0  0  0  0  0  0  0  0  0  0  0
   -3.0593    0.1940   -0.5530 H   0  0  0  0  0  0  0  0  0  0  0  0
   -2.5989    1.1309    0.9143 H   0  0  0  0  0  0  0  0  0  0  0  0
   -2.0064   -3.2005    1.0089 H   0  0  0  0  0  0  0  0  0  0  0  0
   -3.6370   -2.5213    1.3552 H   0  0  0  0  0  0  0  0  0  0  0  0
   -3.0155   -2.5041   -0.3114 H   0  0  0  0  0  0  0  0  0  0  0  0
    1.7304    0.0224   -0.2922 H   0  0  0  0  0  0  0  0  0  0  0  0
    3.0166    1.8659   -0.9775 H   0  0  0  0  0  0  0  0  0  0  0  0
    4.1024    0.4510   -1.0927 H   0  0  0  0  0  0  0  0  0  0  0  0
    5.3869    1.4546   -2.8812 H   0  0  0  0  0  0  0  0  0  0  0  0
    5.2783    2.6385   -1.5445 H   0  0  0  0  0  0  0  0  0  0  0  0
    3.4274    2.6884   -4.0401 H   0  0  0  0  0  0  0  0  0  0  0  0
    4.9787    3.5382   -3.9427 H   0  0  0  0  0  0  0  0  0  0  0  0
    4.2390    4.8636   -1.9813 H   0  0  0  0  0  0  0  0  0  0  0  0
    3.2180    5.1505   -3.4158 H   0  0  0  0  0  0  0  0  0  0  0  0
    0.3670    3.1606   -0.4197 H   0  0  0  0  0  0  0  0  0  0  0  0
   -1.7778    2.2833   -1.2002 H   0  0  0  0  0  0  0  0  0  0  0  0
   -2.6183    2.3288   -5.9048 H   0  0  0  0  0  0  0  0  0  0  0  0
   -0.6041    3.0966   -5.2781 H   0  0  0  0  0  0  0  0  0  0  0  0
    1.5092    3.9810   -4.4916 H   0  0  0  0  0  0  0  0  0  0  0  0
  1  2  1  0
  2  3  1  0
  3  4  2  0
  4  5  1  0
  5  6  2  0
  6  7  1  0
  7  8  2  0
  8  9  1  0
  9 10  1  0
 10 11  1  0
 11 12  1  0
 12 13  1  0
 13 14  1  0
 14 15  1  0
 15 16  1  0
  9 17  2  0
 17 18  1  0
 17 19  1  0
 19 20  1  0
 19 21  1  0
  6 22  1  0
 22 23  2  0
 23 24  1  0
 24 25  1  0
 25 26  1  0
 26 27  1  0
 27 28  1  0
 28 29  1  0
 29 30  1  0
 30 31  2  0
 31 32  1  0
 32 33  2  0
 33 34  1  0
 34 35  1  0
 35 36  2  0
 36 37  1  0
 37 38  1  0
 33 39  1  0
 39 40  2  0
 23  3  1  0
 40 30  1  0
 19  7  1  0
 38 34  2  0
 16 10  1  0
  1 41  1  0
  1 42  1  0
  1 43  1  0
  4 44  1  0
  5 45  1  0
 10 46  1  0
 11 47  1  0
 11 48  1  0
 12 49  1  0
 12 50  1  0
 13 51  1  0
 13 52  1  0
 14 53  1  0
 14 54  1  0
 15 55  1  0
 15 56  1  0
 16 57  1  0
 16 58  1  0
 18 59  1  0
 20 60  1  0
 20 61  1  0
 20 62  1  0
 21 63  1  0
 21 64  1  0
 21 65  1  0
 22 66  1  0
 25 67  1  0
 25 68  1  0
 26 69  1  0
 26 70  1  0
 27 71  1  0
 27 72  1  0
 28 73  1  0
 28 74  1  0
 31 75  1  0
 32 76  1  0
 38 77  1  0
 39 78  1  0
 40 79  1  0
M  CHG  3   9   1  37  -1  38   1
M  END
>  <UniqueID>  (5) 
4

>  <SMILES>  (5) 
COc1ccc(C2=N[N+](C3CCCCCC3)=C(O)C2(C)C)cc1OCCCCOc1ccc(-c2nn[n-][nH+]2)cc1

>  <Energy>  (5) 
133.86759055792814

>  <Genealogy>  (5) 
COc1ccc(C2=N[NH+](C3CCCCCC3)C(=O)C2(C)C)cc1OCCCCOc1ccc(-c2nn[n-][nH+]2)cc1 (protonated)
COc1ccc(C2=N[N+](C3CCCCCC3)=C(O)C2(C)C)cc1OCCCCOc1ccc(-c2nn[n-][nH+]2)cc1 (tautomer)
COc1ccc(C2=N[N+](C3CCCCCC3)=C(O)C2(C)C)cc1OCCCCOc1ccc(-c2nn[n-][nH+]2)cc1 (3D coordinates assigned)
COc1ccc(C2=N[N+](C3CCCCCC3)=C(O)C2(C)C)cc1OCCCCOc1ccc(-c2nn[n-][nH+]2)cc1 (nonaromatic ring conformer: 133.86759055792814 kcal/mol)

$$$$
ac05
     RDKit          3D

 78 82  0  0  0  0  0  0  0  0999 V2000
    1.3626    3.5184    5.7798 C   0  0  0  0  0  0  0  0  0  0  0  0
    1.8005    3.2781    4.4457 O   0  0  0  0  0  0  0  0  0  0  0  0
    0.9988    2.7241    3.4352 C   0  0  0  0  0  0  0  0  0  0  0  0
   -0.3310    2.3328    3.6644 C   0  0  0  0  0  0  0  0  0  0  0  0
   -1.0903    1.7628    2.6408 C   0  0  0  0  0  0  0  0  0  0  0  0
   -0.5438    1.5709    1.3591 C   0  0  0  0  0  0  0  0  0  0  0  0
   -1.3114    0.9358    0.2427 C   0  0  0  0  0  0  0  0  0  0  0  0
   -0.7491    0.7449   -0.9157 N   0  0  0  0  0  0  0  0  0  0  0  0
   -1.6273    0.1388   -1.8110 N   0  0  0  0  0  0  0  0  0  0  0  0
   -1.2665   -0.2196   -3.1863 C   0  0  0  0  0  0  0  0  0  0  0  0
   -2.1117    0.5981   -4.2032 C   0  0  0  0  0  0  0  0  0  0  0  0
   -3.2111   -0.1703   -4.9567 C   0  0  0  0  0  0  0  0  0  0  0  0
   -2.6576   -0.9980   -6.1283 C   0  0  0  0  0  0  0  0  0  0  0  0
   -2.0782   -2.3491   -5.6964 C   0  0  0  0  0  0  0  0  0  0  0  0
   -0.8749   -2.2229   -4.7530 C   0  0  0  0  0  0  0  0  0  0  0  0
   -1.2840   -1.7550   -3.3466 C   0  0  0  0  0  0  0  0  0  0  0  0
   -2.8535   -0.0673   -1.1379 C   0  0  0  0  0  0  0  0  0  0  0  0
   -3.8740   -0.5849   -1.6663 O   0  0  0  0  0  0  0  0  0  0  0  0
   -2.7592    0.4306    0.2690 C   0  0  0  0  0  0  0  0  0  0  0  0
   -3.7795    1.5625    0.4749 C   0  0  0  0  0  0  0  0  0  0  0  0
   -2.9662   -0.7489    1.2368 C   0  0  0  0  0  0  0  0  0  0  0  0
    0.7841    1.9877    1.1324 C   0  0  0  0  0  0  0  0  0  0  0  0
    1.5571    2.5537    2.1633 C   0  0  0  0  0  0  0  0  0  0  0  0
    2.8904    2.9457    1.9688 O   0  0  0  0  0  0  0  0  0  0  0  0
    3.6432    2.7121    0.7808 C   0  0  0  0  0  0  0  0  0  0  0  0
    5.1268    3.0011    1.0325 C   0  0  0  0  0  0  0  0  0  0  0  0
    5.6969    2.2959    2.2786 C   0  0  0  0  0  0  0  0  0  0  0  0
    5.5784    0.7692    2.2287 C   0  0  0  0  0  0  0  0  0  0  0  0
    4.2447    0.3742    2.5422 O   0  0  0  0  0  0  0  0  0  0  0  0
    3.7733   -0.9452    2.4990 C   0  0  0  0  0  0  0  0  0  0  0  0
    4.6143   -2.0365    2.2114 C   0  0  0  0  0  0  0  0  0  0  0  0
    4.0960   -3.3339    2.1730 C   0  0  0  0  0  0  0  0  0  0  0  0
    2.7312   -3.5647    2.4132 C   0  0  0  0  0  0  0  0  0  0  0  0
    2.1859   -4.9379    2.3614 C   0  0  0  0  0  0  0  0  0  0  0  0
    2.9214   -6.0414    2.1061 N   0  0  0  0  0  0  0  0  0  0  0  0
    2.0600   -7.0443    2.1510 N   0  0  0  0  0  2  0  0  0  0  0  0
    0.8569   -6.5673    2.4192 N   0  0  0  0  0  4  0  0  0  0  0  0
    0.8907   -5.2529    2.5596 N   0  0  0  0  0  0  0  0  0  0  0  0
    1.8940   -2.4730    2.7025 C   0  0  0  0  0  0  0  0  0  0  0  0
    2.4147   -1.1758    2.7480 C   0  0  0  0  0  0  0  0  0  0  0  0
    2.2058    3.9367    6.3658 H   0  0  0  0  0  0  0  0  0  0  0  0
    0.5262    4.2514    5.7821 H   0  0  0  0  0  0  0  0  0  0  0  0
    1.0392    2.5661    6.2544 H   0  0  0  0  0  0  0  0  0  0  0  0
   -0.7884    2.4581    4.6362 H   0  0  0  0  0  0  0  0  0  0  0  0
   -2.0990    1.4786    2.8772 H   0  0  0  0  0  0  0  0  0  0  0  0
   -0.2095    0.0960   -3.3369 H   0  0  0  0  0  0  0  0  0  0  0  0
   -2.5926    1.4494   -3.6733 H   0  0  0  0  0  0  0  0  0  0  0  0
   -1.4309    1.0734   -4.9454 H   0  0  0  0  0  0  0  0  0  0  0  0
   -3.8128   -0.8010   -4.2693 H   0  0  0  0  0  0  0  0  0  0  0  0
   -3.9087    0.5834   -5.3842 H   0  0  0  0  0  0  0  0  0  0  0  0
   -1.8928   -0.4215   -6.6946 H   0  0  0  0  0  0  0  0  0  0  0  0
   -3.4936   -1.2001   -6.8333 H   0  0  0  0  0  0  0  0  0  0  0  0
   -2.8737   -2.9713   -5.2296 H   0  0  0  0  0  0  0  0  0  0  0  0
   -1.7463   -2.8863   -6.6108 H   0  0  0  0  0  0  0  0  0  0  0  0
   -0.1044   -1.5505   -5.1926 H   0  0  0  0  0  0  0  0  0  0  0  0
   -0.4130   -3.2315   -4.6625 H   0  0  0  0  0  0  0  0  0  0  0  0
   -2.2745   -2.1760   -3.0655 H   0  0  0  0  0  0  0  0  0  0  0  0
   -0.5533   -2.1755   -2.6198 H   0  0  0  0  0  0  0  0  0  0  0  0
   -3.7297    1.9839    1.4974 H   0  0  0  0  0  0  0  0  0  0  0  0
   -4.8108    1.1777    0.3208 H   0  0  0  0  0  0  0  0  0  0  0  0
   -3.6039    2.3853   -0.2520 H   0  0  0  0  0  0  0  0  0  0  0  0
   -2.9561   -0.4276    2.2954 H   0  0  0  0  0  0  0  0  0  0  0  0
   -3.9517   -1.2305    1.0492 H   0  0  0  0  0  0  0  0  0  0  0  0
   -2.1694   -1.5106    1.0971 H   0  0  0  0  0  0  0  0  0  0  0  0
    1.2184    1.8682    0.1497 H   0  0  0  0  0  0  0  0  0  0  0  0
    3.5299    1.6569    0.4520 H   0  0  0  0  0  0  0  0  0  0  0  0
    3.2703    3.3737   -0.0298 H   0  0  0  0  0  0  0  0  0  0  0  0
    5.2591    4.0974    1.1621 H   0  0  0  0  0  0  0  0  0  0  0  0
    5.7111    2.6978    0.1365 H   0  0  0  0  0  0  0  0  0  0  0  0
    6.7743    2.5567    2.3519 H   0  0  0  0  0  0  0  0  0  0  0  0
    5.2022    2.6804    3.1974 H   0  0  0  0  0  0  0  0  0  0  0  0
    6.2702    0.3308    2.9790 H   0  0  0  0  0  0  0  0  0  0  0  0
    5.8629    0.4001    1.2192 H   0  0  0  0  0  0  0  0  0  0  0  0
    5.6696   -1.8942    2.0188 H   0  0  0  0  0  0  0  0  0  0  0  0
    4.7643   -4.1570    1.9498 H   0  0  0  0  0  0  0  0  0  0  0  0
   -0.0043   -7.1494    2.5118 H   0  0  0  0  0  0  0  0  0  0  0  0
    0.8380   -2.6215    2.8925 H   0  0  0  0  0  0  0  0  0  0  0  0
    1.7585   -0.3444    2.9723 H   0  0  0  0  0  0  0  0  0  0  0  0
  1  2  1  0
  2  3  1  0
  3  4  2  0
  4  5  1  0
  5  6  2  0
  6  7  1  0
  7  8  2  0
  8  9  1  0
  9 10  1  0
 10 11  1  0
 11 12  1  0
 12 13  1  0
 13 14  1  0
 14 15  1  0
 15 16  1  0
  9 17  1  0
 17 18  2  0
 17 19  1  0
 19 20  1  0
 19 21  1  0
  6 22  1  0
 22 23  2  0
 23 24  1  0
 24 25  1  0
 25 26  1  0
 26 27  1  0
 27 28  1  0
 28 29  1  0
 29 30  1  0
 30 31  2  0
 31 32  1  0
 32 33  2  0
 33 34  1  0
 34 35  2  0
 35 36  1  0
 36 37  1  0
 37 38  2  0
 33 39  1  0
 39 40  2  0
 23  3  1  0
 40 30  1  0
 19  7  1  0
 38 34  1  0
 16 10  1  0
  1 41  1  0
  1 42  1  0
  1 43  1  0
  4 44  1  0
  5 45  1  0
 10 46  1  0
 11 47  1  0
 11 48  1  0
 12 49  1  0
 12 50  1  0
 13 51  1  0
 13 52  1  0
 14 53  1  0
 14 54  1  0
 15 55  1  0
 15 56  1  0
 16 57  1  0
 16 58  1  0
 20 59  1  0
 20 60  1  0
 20 61  1  0
 21 62  1  0
 21 63  1  0
 21 64  1  0
 22 65  1  0
 25 66  1  0
 25 67  1  0
 26 68  1  0
 26 69  1  0
 27 70  1  0
 27 71  1  0
 28 72  1  0
 28 73  1  0
 31 74  1  0
 32 75  1  0
 37 76  1  0
 39 77  1  0
 40 78  1  0
M  CHG  2  36  -1  37   1
M  END
>  <UniqueID>  (6) 
5

>  <SMILES>  (6) 
COc1ccc(C2=NN(C3CCCCCC3)C(=O)C2(C)C)cc1OCCCCOc1ccc(-c2n[n-][nH+]n2)cc1

>  <Energy>  (6) 
133.90405081413783

>  <Genealogy>  (6) 
COc1ccc(C2=NN(C3CCCCCC3)C(=O)C2(C)C)cc1OCCCCOc1ccc(-c2n[n-][nH+]n2)cc1 (protonated)
COc1ccc(C2=NN(C3CCCCCC3)C(=O)C2(C)C)cc1OCCCCOc1ccc(-c2n[n-][nH+]n2)cc1 (3D coordinates assigned)
COc1ccc(C2=NN(C3CCCCCC3)C(=O)C2(C)C)cc1OCCCCOc1ccc(-c2n[n-][nH+]n2)cc1 (nonaromatic ring conformer: 133.90405081413783 kcal/mol)

$$$$
bc02
     RDKit          3D

 84 89  0  0  0  0  0  0  0  0999 V2000
   -5.3302   -5.3802   -1.5546 C   0  0  0  0  0  0  0  0  0  0  0  0
   -4.1586   -4.8671   -0.9304 O   0  0  0  0  0  0  0  0  0  0  0  0
   -3.7874   -3.5120   -0.9282 C   0  0  0  0  0  0  0  0  0  0  0  0
   -4.5919   -2.5147   -1.5139 C   0  0  0  0  0  0  0  0  0  0  0  0
   -4.1757   -1.1814   -1.5184 C   0  0  0  0  0  0  0  0  0  0  0  0
   -2.9783   -0.8117   -0.8894 C   0  0  0  0  0  0  0  0  0  0  0  0
   -2.4792    0.5786   -0.9440 C   0  0  0  0  0  0  0  0  0  0  0  0
   -1.2520    0.7475   -1.3489 N   0  0  0  0  0  0  0  0  0  0  0  0
   -0.6612    2.0106   -1.5535 N   0  0  0  0  0  0  0  0  0  0  0  0
    0.7492    2.0749   -1.9705 C   0  0  0  0  0  0  0  0  0  0  0  0
    1.0401    0.9757   -3.0245 C   0  0  0  0  0  0  0  0  0  0  0  0
    2.1836    1.2922   -4.0061 C   0  0  0  0  0  0  0  0  0  0  0  0
    3.4189    1.9983   -3.4213 C   0  0  0  0  0  0  0  0  0  0  0  0
    3.8150    1.5265   -2.0135 C   0  0  0  0  0  0  0  0  0  0  0  0
    3.0918    2.3226   -0.9172 C   0  0  0  0  0  0  0  0  0  0  0  0
    1.6332    1.8976   -0.7155 C   0  0  0  0  0  0  0  0  0  0  0  0
   -1.3523    3.1812   -1.0885 C   0  0  0  0  0  0  0  0  0  0  0  0
   -0.9162    4.3356   -1.3356 O   0  0  0  0  0  0  0  0  0  0  0  0
   -2.5426    2.9941   -0.1981 C   0  0  2  0  0  0  0  0  0  0  0  0
   -2.0466    2.7802    1.2567 C   0  0  0  0  0  0  0  0  0  0  0  0
   -3.0317    2.0763    2.1517 C   0  0  0  0  0  0  0  0  0  0  0  0
   -4.1070    1.4303    1.6861 C   0  0  0  0  0  0  0  0  0  0  0  0
   -4.5539    1.5667    0.2600 C   0  0  0  0  0  0  0  0  0  0  0  0
   -3.3742    1.7946   -0.7128 C   0  0  2  0  0  0  0  0  0  0  0  0
   -2.1751   -1.8040   -0.3093 C   0  0  0  0  0  0  0  0  0  0  0  0
   -2.5624   -3.1572   -0.3444 C   0  0  0  0  0  0  0  0  0  0  0  0
   -1.7450   -4.1777    0.1707 O   0  0  0  0  0  0  0  0  0  0  0  0
   -0.3456   -4.0542    0.4366 C   0  0  0  0  0  0  0  0  0  0  0  0
    0.4339   -3.8918   -0.8784 C   0  0  0  0  0  0  0  0  0  0  0  0
    1.9590   -3.9588   -0.6938 C   0  0  0  0  0  0  0  0  0  0  0  0
    2.5568   -2.6759   -0.1084 C   0  0  0  0  0  0  0  0  0  0  0  0
    2.2718   -2.5883    1.2858 O   0  0  0  0  0  0  0  0  0  0  0  0
    2.7166   -1.5564    2.1250 C   0  0  0  0  0  0  0  0  0  0  0  0
    2.3556   -1.5973    3.4741 C   0  0  0  0  0  0  0  0  0  0  0  0
    2.7856   -0.6018    4.3569 C   0  0  0  0  0  0  0  0  0  0  0  0
    3.5876    0.4614    3.9009 C   0  0  0  0  0  0  0  0  0  0  0  0
    4.0515    1.5179    4.8369 C   0  0  0  0  0  0  0  0  0  0  0  0
    3.5664    1.7310    6.0769 N   0  0  0  0  0  4  0  0  0  0  0  0
    4.2567    2.7434    6.5782 N   0  0  0  0  0  0  0  0  0  0  0  0
    5.1445    3.1497    5.6811 N   0  0  0  0  0  2  0  0  0  0  0  0
    5.0336    2.4071    4.5898 N   0  0  0  0  0  4  0  0  0  0  0  0
    3.9491    0.4999    2.5427 C   0  0  0  0  0  0  0  0  0  0  0  0
    3.5161   -0.4964    1.6621 C   0  0  0  0  0  0  0  0  0  0  0  0
   -5.3114   -5.1569   -2.6433 H   0  0  0  0  0  0  0  0  0  0  0  0
   -6.2363   -4.9404   -1.0865 H   0  0  0  0  0  0  0  0  0  0  0  0
   -5.3604   -6.4820   -1.4205 H   0  0  0  0  0  0  0  0  0  0  0  0
   -5.5286   -2.7629   -1.9925 H   0  0  0  0  0  0  0  0  0  0  0  0
   -4.7792   -0.4437   -2.0332 H   0  0  0  0  0  0  0  0  0  0  0  0
    0.9464    3.0696   -2.4282 H   0  0  0  0  0  0  0  0  0  0  0  0
    0.1299    0.8136   -3.6434 H   0  0  0  0  0  0  0  0  0  0  0  0
    1.2465    0.0051   -2.5206 H   0  0  0  0  0  0  0  0  0  0  0  0
    1.7830    1.9255   -4.8273 H   0  0  0  0  0  0  0  0  0  0  0  0
    2.5094    0.3358   -4.4719 H   0  0  0  0  0  0  0  0  0  0  0  0
    4.2726    1.8066   -4.1095 H   0  0  0  0  0  0  0  0  0  0  0  0
    3.2572    3.0992   -3.4307 H   0  0  0  0  0  0  0  0  0  0  0  0
    3.6485    0.4335   -1.8916 H   0  0  0  0  0  0  0  0  0  0  0  0
    4.9060    1.7023   -1.8872 H   0  0  0  0  0  0  0  0  0  0  0  0
    3.1401    3.4140   -1.1287 H   0  0  0  0  0  0  0  0  0  0  0  0
    3.6299    2.1589    0.0414 H   0  0  0  0  0  0  0  0  0  0  0  0
    1.5918    0.8443   -0.3628 H   0  0  0  0  0  0  0  0  0  0  0  0
    1.2190    2.5221    0.1070 H   0  0  0  0  0  0  0  0  0  0  0  0
   -3.1786    3.9099   -0.2329 H   0  0  0  0  0  0  0  0  0  0  0  0
   -1.1192    2.1657    1.2626 H   0  0  0  0  0  0  0  0  0  0  0  0
   -1.7928    3.7643    1.7053 H   0  0  0  0  0  0  0  0  0  0  0  0
   -2.7852    1.9807    3.2027 H   0  0  0  0  0  0  0  0  0  0  0  0
   -4.7303    0.8712    2.3755 H   0  0  0  0  0  0  0  0  0  0  0  0
   -5.1719    0.6959   -0.0220 H   0  0  0  0  0  0  0  0  0  0  0  0
   -5.2270    2.4496    0.2084 H   0  0  0  0  0  0  0  0  0  0  0  0
   -3.8054    2.0673   -1.7020 H   0  0  0  0  0  0  0  0  0  0  0  0
   -1.2419   -1.5119    0.1556 H   0  0  0  0  0  0  0  0  0  0  0  0
   -0.0112   -4.9844    0.9459 H   0  0  0  0  0  0  0  0  0  0  0  0
   -0.1605   -3.2097    1.1313 H   0  0  0  0  0  0  0  0  0  0  0  0
    0.1583   -2.9401   -1.3814 H   0  0  0  0  0  0  0  0  0  0  0  0
    0.1317   -4.7172   -1.5597 H   0  0  0  0  0  0  0  0  0  0  0  0
    2.2366   -4.8312   -0.0648 H   0  0  0  0  0  0  0  0  0  0  0  0
    2.4134   -4.1191   -1.6950 H   0  0  0  0  0  0  0  0  0  0  0  0
    3.6591   -2.7060   -0.2528 H   0  0  0  0  0  0  0  0  0  0  0  0
    2.1526   -1.7855   -0.6390 H   0  0  0  0  0  0  0  0  0  0  0  0
    1.7439   -2.4121    3.8410 H   0  0  0  0  0  0  0  0  0  0  0  0
    2.5023   -0.6819    5.3967 H   0  0  0  0  0  0  0  0  0  0  0  0
    2.7913    1.2372    6.5738 H   0  0  0  0  0  0  0  0  0  0  0  0
    5.6309    2.5093    3.7382 H   0  0  0  0  0  0  0  0  0  0  0  0
    4.5603    1.3020    2.1522 H   0  0  0  0  0  0  0  0  0  0  0  0
    3.8133   -0.4341    0.6252 H   0  0  0  0  0  0  0  0  0  0  0  0
  1  2  1  0
  2  3  1  0
  3  4  2  0
  4  5  1  0
  5  6  2  0
  6  7  1  0
  7  8  2  0
  8  9  1  0
  9 10  1  0
 10 11  1  0
 11 12  1  0
 12 13  1  0
 13 14  1  0
 14 15  1  0
 15 16  1  0
  9 17  1  0
 17 18  2  0
 17 19  1  0
 19 20  1  0
 20 21  1  0
 21 22  2  0
 22 23  1  0
 23 24  1  0
  6 25  1  0
 25 26  2  0
 26 27  1  0
 27 28  1  0
 28 29  1  0
 29 30  1  0
 30 31  1  0
 31 32  1  0
 32 33  1  0
 33 34  2  0
 34 35  1  0
 35 36  2  0
 36 37  1  0
 37 38  1  0
 38 39  2  0
 39 40  1  0
 40 41  1  0
 36 42  1  0
 42 43  2  0
 26  3  1  0
 43 33  1  0
 24  7  1  0
 41 37  2  0
 16 10  1  0
 24 19  1  0
  1 44  1  0
  1 45  1  0
  1 46  1  0
  4 47  1  0
  5 48  1  0
 10 49  1  0
 11 50  1  0
 11 51  1  0
 12 52  1  0
 12 53  1  0
 13 54  1  0
 13 55  1  0
 14 56  1  0
 14 57  1  0
 15 58  1  0
 15 59  1  0
 16 60  1  0
 16 61  1  0
 19 62  1  1
 20 63  1  0
 20 64  1  0
 21 65  1  0
 22 66  1  0
 23 67  1  0
 23 68  1  0
 24 69  1  6
 25 70  1  0
 28 71  1  0
 28 72  1  0
 29 73  1  0
 29 74  1  0
 30 75  1  0
 30 76  1  0
 31 77  1  0
 31 78  1  0
 34 79  1  0
 35 80  1  0
 38 81  1  0
 41 82  1  0
 42 83  1  0
 43 84  1  0
M  CHG  3  38   1  40  -1  41   1
M  END
>  <UniqueID>  (7) 
6

>  <SMILES>  (7) 
COc1ccc(C2=NN(C3CCCCCC3)C(=O)[C@@H]3CC=CC[C@H]23)cc1OCCCCOc1ccc(-c2[nH+]n[n-][nH+]2)cc1

>  <Energy>  (7) 
132.57053467931374

>  <Genealogy>  (7) 
COc1ccc(C2=NN(C3CCCCCC3)C(=O)[C@@H]3CC=CC[C@H]23)cc1OCCCCOc1ccc(-c2[nH+]n[n-][nH+]2)cc1 (protonated)
COc1ccc(C2=NN(C3CCCCCC3)C(=O)[C@@H]3CC=CC[C@H]23)cc1OCCCCOc1ccc(-c2[nH+]n[n-][nH+]2)cc1 (3D coordinates assigned)
COc1ccc(C2=NN(C3CCCCCC3)C(=O)[C@@H]3CC=CC[C@H]23)cc1OCCCCOc1ccc(-c2[nH+]n[n-][nH+]2)cc1 (nonaromatic ring conformer: 132.57053467931374 kcal/mol)

$$$$
bc02
     RDKit          3D

 84 89  0  0  0  0  0  0  0  0999 V2000
   -3.8829   -5.0946    1.6142 C   0  0  0  0  0  0  0  0  0  0  0  0
   -2.9613   -4.6136    0.6417 O   0  0  0  0  0  0  0  0  0  0  0  0
   -2.6176   -3.2631    0.4711 C   0  0  0  0  0  0  0  0  0  0  0  0
   -3.1815   -2.2419    1.2541 C   0  0  0  0  0  0  0  0  0  0  0  0
   -2.7990   -0.9118    1.0697 C   0  0  0  0  0  0  0  0  0  0  0  0
   -1.8763   -0.5583    0.0649 C   0  0  0  0  0  0  0  0  0  0  0  0
   -1.4446    0.8582   -0.1606 C   0  0  0  0  0  0  0  0  0  0  0  0
   -0.5183    1.0925   -1.0522 N   0  0  0  0  0  0  0  0  0  0  0  0
    0.0316    2.3643   -1.3111 N   0  0  0  0  0  0  0  0  0  0  0  0
    1.0252    2.5249   -2.3924 C   0  0  0  0  0  0  0  0  0  0  0  0
    0.3787    2.3061   -3.7782 C   0  0  0  0  0  0  0  0  0  0  0  0
    0.2884    0.8491   -4.2531 C   0  0  0  0  0  0  0  0  0  0  0  0
    1.6606    0.3013   -4.6730 C   0  0  0  0  0  0  0  0  0  0  0  0
    2.4098   -0.4150   -3.5433 C   0  0  0  0  0  0  0  0  0  0  0  0
    2.3085    0.2279   -2.1489 C   0  0  0  0  0  0  0  0  0  0  0  0
    2.3554    1.7681   -2.1266 C   0  0  0  0  0  0  0  0  0  0  0  0
   -0.5887    3.5148   -0.7093 C   0  0  0  0  0  0  0  0  0  0  0  0
   -0.0455    4.6535   -0.7671 O   0  0  0  0  0  0  0  0  0  0  0  0
   -1.9376    3.3280   -0.0746 C   0  0  2  0  0  0  0  0  0  0  0  0
   -2.3917    4.5031    0.8171 C   0  0  0  0  0  0  0  0  0  0  0  0
   -1.7627    4.4933    2.1847 C   0  0  0  0  0  0  0  0  0  0  0  0
   -1.2759    3.3784    2.7476 C   0  0  0  0  0  0  0  0  0  0  0  0
   -1.0804    2.0951    1.9828 C   0  0  0  0  0  0  0  0  0  0  0  0
   -1.9493    2.0018    0.7103 C   0  0  2  0  0  0  0  0  0  0  0  0
   -1.3293   -1.5905   -0.7242 C   0  0  0  0  0  0  0  0  0  0  0  0
   -1.6628   -2.9377   -0.4984 C   0  0  0  0  0  0  0  0  0  0  0  0
   -1.0445   -3.9835   -1.2045 O   0  0  0  0  0  0  0  0  0  0  0  0
    0.2656   -3.9194   -1.7734 C   0  0  0  0  0  0  0  0  0  0  0  0
    1.3069   -3.6548   -0.6776 C   0  0  0  0  0  0  0  0  0  0  0  0
    2.7401   -3.7996   -1.1950 C   0  0  0  0  0  0  0  0  0  0  0  0
    3.7843   -3.5440   -0.0995 C   0  0  0  0  0  0  0  0  0  0  0  0
    3.8616   -2.1553    0.2354 O   0  0  0  0  0  0  0  0  0  0  0  0
    3.1508   -1.4938    1.2536 C   0  0  0  0  0  0  0  0  0  0  0  0
    2.2878   -2.1558    2.1486 C   0  0  0  0  0  0  0  0  0  0  0  0
    1.6134   -1.4387    3.1424 C   0  0  0  0  0  0  0  0  0  0  0  0
    1.7962   -0.0505    3.2740 C   0  0  0  0  0  0  0  0  0  0  0  0
    1.1162    0.7022    4.3576 C   0  0  0  0  0  0  0  0  0  0  0  0
    0.0835    0.2509    5.0937 N   0  0  0  0  0  4  0  0  0  0  0  0
   -0.2084    1.2118    5.9553 N   0  0  0  0  0  0  0  0  0  0  0  0
    0.6170    2.2302    5.7656 N   0  0  0  0  0  2  0  0  0  0  0  0
    1.4465    1.9377    4.7771 N   0  0  0  0  0  4  0  0  0  0  0  0
    2.6533    0.6069    2.3737 C   0  0  0  0  0  0  0  0  0  0  0  0
    3.3262   -0.1112    1.3812 C   0  0  0  0  0  0  0  0  0  0  0  0
   -4.8841   -4.6460    1.4451 H   0  0  0  0  0  0  0  0  0  0  0  0
   -3.5206   -4.8511    2.6353 H   0  0  0  0  0  0  0  0  0  0  0  0
   -3.9663   -6.1965    1.5197 H   0  0  0  0  0  0  0  0  0  0  0  0
   -3.9043   -2.4683    2.0263 H   0  0  0  0  0  0  0  0  0  0  0  0
   -3.2325   -0.1790    1.7316 H   0  0  0  0  0  0  0  0  0  0  0  0
    1.3414    3.5909   -2.4083 H   0  0  0  0  0  0  0  0  0  0  0  0
    0.9307    2.9020   -4.5389 H   0  0  0  0  0  0  0  0  0  0  0  0
   -0.6501    2.7285   -3.7553 H   0  0  0  0  0  0  0  0  0  0  0  0
   -0.3717    0.8325   -5.1480 H   0  0  0  0  0  0  0  0  0  0  0  0
   -0.1947    0.1994   -3.4937 H   0  0  0  0  0  0  0  0  0  0  0  0
    2.3004    1.1116   -5.0879 H   0  0  0  0  0  0  0  0  0  0  0  0
    1.5151   -0.4294   -5.4994 H   0  0  0  0  0  0  0  0  0  0  0  0
    2.0244   -1.4526   -3.4739 H   0  0  0  0  0  0  0  0  0  0  0  0
    3.4800   -0.4900   -3.8308 H   0  0  0  0  0  0  0  0  0  0  0  0
    1.4290   -0.1652   -1.6163 H   0  0  0  0  0  0  0  0  0  0  0  0
    3.1787   -0.1419   -1.5680 H   0  0  0  0  0  0  0  0  0  0  0  0
    3.1238    2.1146   -2.8516 H   0  0  0  0  0  0  0  0  0  0  0  0
    2.7163    2.0786   -1.1212 H   0  0  0  0  0  0  0  0  0  0  0  0
   -2.6713    3.2440   -0.9080 H   0  0  0  0  0  0  0  0  0  0  0  0
   -2.1909    5.4761    0.3214 H   0  0  0  0  0  0  0  0  0  0  0  0
   -3.4922    4.4356    0.9563 H   0  0  0  0  0  0  0  0  0  0  0  0
   -1.8286    5.3959    2.7858 H   0  0  0  0  0  0  0  0  0  0  0  0
   -0.8950    3.4331    3.7626 H   0  0  0  0  0  0  0  0  0  0  0  0
   -0.0030    2.0230    1.7172 H   0  0  0  0  0  0  0  0  0  0  0  0
   -1.3163    1.2424    2.6528 H   0  0  0  0  0  0  0  0  0  0  0  0
   -3.0062    1.8280    1.0009 H   0  0  0  0  0  0  0  0  0  0  0  0
   -0.6293   -1.3524   -1.5093 H   0  0  0  0  0  0  0  0  0  0  0  0
    0.4770   -4.8968   -2.2582 H   0  0  0  0  0  0  0  0  0  0  0  0
    0.3103   -3.1366   -2.5605 H   0  0  0  0  0  0  0  0  0  0  0  0
    1.1617   -2.6249   -0.2952 H   0  0  0  0  0  0  0  0  0  0  0  0
    1.1416   -4.3738    0.1534 H   0  0  0  0  0  0  0  0  0  0  0  0
    2.8824   -4.8333   -1.5789 H   0  0  0  0  0  0  0  0  0  0  0  0
    2.9130   -3.0967   -2.0363 H   0  0  0  0  0  0  0  0  0  0  0  0
    4.7722   -3.8401   -0.5110 H   0  0  0  0  0  0  0  0  0  0  0  0
    3.6174   -4.1839    0.7927 H   0  0  0  0  0  0  0  0  0  0  0  0
    2.1244   -3.2220    2.0936 H   0  0  0  0  0  0  0  0  0  0  0  0
    0.9701   -1.9832    3.8206 H   0  0  0  0  0  0  0  0  0  0  0  0
   -0.4218   -0.6581    5.0234 H   0  0  0  0  0  0  0  0  0  0  0  0
    2.2035    2.5655    4.4334 H   0  0  0  0  0  0  0  0  0  0  0  0
    2.8067    1.6761    2.4281 H   0  0  0  0  0  0  0  0  0  0  0  0
    3.9917    0.4144    0.7063 H   0  0  0  0  0  0  0  0  0  0  0  0
  1  2  1  0
  2  3  1  0
  3  4  2  0
  4  5  1  0
  5  6  2  0
  6  7  1  0
  7  8  2  0
  8  9  1  0
  9 10  1  0
 10 11  1  0
 11 12  1  0
 12 13  1  0
 13 14  1  0
 14 15  1  0
 15 16  1  0
  9 17  1  0
 17 18  2  0
 17 19  1  0
 19 20  1  0
 20 21  1  0
 21 22  2  0
 22 23  1  0
 23 24  1  0
  6 25  1  0
 25 26  2  0
 26 27  1  0
 27 28  1  0
 28 29  1  0
 29 30  1  0
 30 31  1  0
 31 32  1  0
 32 33  1  0
 33 34  2  0
 34 35  1  0
 35 36  2  0
 36 37  1  0
 37 38  1  0
 38 39  2  0
 39 40  1  0
 40 41  1  0
 36 42  1  0
 42 43  2  0
 26  3  1  0
 43 33  1  0
 24  7  1  0
 41 37  2  0
 16 10  1  0
 24 19  1  0
  1 44  1  0
  1 45  1  0
  1 46  1  0
  4 47  1  0
  5 48  1  0
 10 49  1  0
 11 50  1  0
 11 51  1  0
 12 52  1  0
 12 53  1  0
 13 54  1  0
 13 55  1  0
 14 56  1  0
 14 57  1  0
 15 58  1  0
 15 59  1  0
 16 60  1  0
 16 61  1  0
 19 62  1  6
 20 63  1  0
 20 64  1  0
 21 65  1  0
 22 66  1  0
 23 67  1  0
 23 68  1  0
 24 69  1  1
 25 70  1  0
 28 71  1  0
 28 72  1  0
 29 73  1  0
 29 74  1  0
 30 75  1  0
 30 76  1  0
 31 77  1  0
 31 78  1  0
 34 79  1  0
 35 80  1  0
 38 81  1  0
 41 82  1  0
 42 83  1  0
 43 84  1  0
M  CHG  3  38   1  40  -1  41   1
M  END
>  <UniqueID>  (8) 
7

>  <SMILES>  (8) 
COc1ccc(C2=NN(C3CCCCCC3)C(=O)[C@@H]3CC=CC[C@H]23)cc1OCCCCOc1ccc(-c2[nH+]n[n-][nH+]2)cc1

>  <Energy>  (8) 
133.47453350691848

>  <Genealogy>  (8) 
COc1ccc(C2=NN(C3CCCCCC3)C(=O)[C@@H]3CC=CC[C@H]23)cc1OCCCCOc1ccc(-c2[nH+]n[n-][nH+]2)cc1 (protonated)
COc1ccc(C2=NN(C3CCCCCC3)C(=O)[C@@H]3CC=CC[C@H]23)cc1OCCCCOc1ccc(-c2[nH+]n[n-][nH+]2)cc1 (3D coordinates assigned)
COc1ccc(C2=NN(C3CCCCCC3)C(=O)[C@@H]3CC=CC[C@H]23)cc1OCCCCOc1ccc(-c2[nH+]n[n-][nH+]2)cc1 (nonaromatic ring conformer: 133.47453350691848 kcal/mol)

$$$$
bc02
     RDKit          3D

 84 89  0  0  0  0  0  0  0  0999 V2000
   -5.7720   -5.6296   -0.1240 C   0  0  0  0  0  0  0  0  0  0  0  0
   -4.4811   -5.2270   -0.5682 O   0  0  0  0  0  0  0  0  0  0  0  0
   -4.0358   -3.8963   -0.6234 C   0  0  0  0  0  0  0  0  0  0  0  0
   -4.8466   -2.8195   -0.2226 C   0  0  0  0  0  0  0  0  0  0  0  0
   -4.3615   -1.5109   -0.2649 C   0  0  0  0  0  0  0  0  0  0  0  0
   -3.0649   -1.2396   -0.7400 C   0  0  0  0  0  0  0  0  0  0  0  0
   -2.4927    0.1415   -0.7349 C   0  0  0  0  0  0  0  0  0  0  0  0
   -1.1999    0.2794   -0.8574 N   0  0  0  0  0  0  0  0  0  0  0  0
   -0.5402    1.5247   -0.8163 N   0  0  0  0  0  0  0  0  0  0  0  0
    0.9263    1.5261   -0.6816 C   0  0  0  0  0  0  0  0  0  0  0  0
    1.5818    2.0926   -1.9601 C   0  0  0  0  0  0  0  0  0  0  0  0
    3.1107    1.9335   -1.9777 C   0  0  0  0  0  0  0  0  0  0  0  0
    3.8332    3.1207   -1.3315 C   0  0  0  0  0  0  0  0  0  0  0  0
    3.6531    3.1819    0.1881 C   0  0  0  0  0  0  0  0  0  0  0  0
    2.1993    3.4394    0.6159 C   0  0  0  0  0  0  0  0  0  0  0  0
    1.3532    2.1562    0.6748 C   0  0  0  0  0  0  0  0  0  0  0  0
   -1.3196    2.7325   -0.9181 C   0  0  0  0  0  0  0  0  0  0  0  0
   -0.7748    3.8666   -0.8468 O   0  0  0  0  0  0  0  0  0  0  0  0
   -2.7947    2.5968   -1.1871 C   0  0  2  0  0  0  0  0  0  0  0  0
   -3.6150    3.8599   -0.8460 C   0  0  0  0  0  0  0  0  0  0  0  0
   -3.8893    4.0127    0.6262 C   0  0  0  0  0  0  0  0  0  0  0  0
   -3.8816    2.9754    1.4756 C   0  0  0  0  0  0  0  0  0  0  0  0
   -3.3522    1.6171    1.0956 C   0  0  0  0  0  0  0  0  0  0  0  0
   -3.3404    1.3685   -0.4293 C   0  0  2  0  0  0  0  0  0  0  0  0
   -2.2761   -2.3202   -1.1810 C   0  0  0  0  0  0  0  0  0  0  0  0
   -2.7367   -3.6464   -1.0846 C   0  0  0  0  0  0  0  0  0  0  0  0
   -1.9328   -4.7459   -1.4261 O   0  0  0  0  0  0  0  0  0  0  0  0
   -0.5266   -4.7138   -1.6824 C   0  0  0  0  0  0  0  0  0  0  0  0
    0.2585   -4.3377   -0.4159 C   0  0  0  0  0  0  0  0  0  0  0  0
    1.7560   -4.6962   -0.5239 C   0  0  0  0  0  0  0  0  0  0  0  0
    2.6771   -3.5721   -0.0422 C   0  0  0  0  0  0  0  0  0  0  0  0
    2.2268   -3.0373    1.2018 O   0  0  0  0  0  0  0  0  0  0  0  0
    2.7980   -1.9222    1.8294 C   0  0  0  0  0  0  0  0  0  0  0  0
    4.0029   -1.3522    1.3911 C   0  0  0  0  0  0  0  0  0  0  0  0
    4.5156   -0.2133    2.0180 C   0  0  0  0  0  0  0  0  0  0  0  0
    3.8360    0.3827    3.0955 C   0  0  0  0  0  0  0  0  0  0  0  0
    4.3533    1.6270    3.7270 C   0  0  0  0  0  0  0  0  0  0  0  0
    3.7416    2.3238    4.7060 N   0  0  0  0  0  4  0  0  0  0  0  0
    4.5157    3.3636    4.9664 N   0  0  0  0  0  0  0  0  0  0  0  0
    5.5757    3.3255    4.1724 N   0  0  0  0  0  2  0  0  0  0  0  0
    5.4979    2.2588    3.3947 N   0  0  0  0  0  4  0  0  0  0  0  0
    2.6402   -0.2086    3.5437 C   0  0  0  0  0  0  0  0  0  0  0  0
    2.1313   -1.3509    2.9171 C   0  0  0  0  0  0  0  0  0  0  0  0
   -6.5571   -5.1898   -0.7751 H   0  0  0  0  0  0  0  0  0  0  0  0
   -5.8451   -6.7351   -0.1816 H   0  0  0  0  0  0  0  0  0  0  0  0
   -5.9286   -5.3163    0.9305 H   0  0  0  0  0  0  0  0  0  0  0  0
   -5.8504   -2.9844    0.1433 H   0  0  0  0  0  0  0  0  0  0  0  0
   -5.0106   -0.7243    0.0948 H   0  0  0  0  0  0  0  0  0  0  0  0
    1.2495    0.4602   -0.6339 H   0  0  0  0  0  0  0  0  0  0  0  0
    1.1739    1.5188   -2.8227 H   0  0  0  0  0  0  0  0  0  0  0  0
    1.2974    3.1511   -2.1333 H   0  0  0  0  0  0  0  0  0  0  0  0
    3.4386    1.8832   -3.0405 H   0  0  0  0  0  0  0  0  0  0  0  0
    3.4218    0.9805   -1.4942 H   0  0  0  0  0  0  0  0  0  0  0  0
    3.4983    4.0744   -1.7933 H   0  0  0  0  0  0  0  0  0  0  0  0
    4.9193    3.0232   -1.5468 H   0  0  0  0  0  0  0  0  0  0  0  0
    4.0448    2.2526    0.6518 H   0  0  0  0  0  0  0  0  0  0  0  0
    4.2784    4.0199    0.5675 H   0  0  0  0  0  0  0  0  0  0  0  0
    1.7215    4.2102   -0.0251 H   0  0  0  0  0  0  0  0  0  0  0  0
    2.2272    3.8590    1.6462 H   0  0  0  0  0  0  0  0  0  0  0  0
    0.4464    2.3775    1.2813 H   0  0  0  0  0  0  0  0  0  0  0  0
    1.9078    1.3952    1.2638 H   0  0  0  0  0  0  0  0  0  0  0  0
   -2.9060    2.4133   -2.2792 H   0  0  0  0  0  0  0  0  0  0  0  0
   -4.5971    3.7959   -1.3625 H   0  0  0  0  0  0  0  0  0  0  0  0
   -3.1108    4.7738   -1.2279 H   0  0  0  0  0  0  0  0  0  0  0  0
   -4.2335    4.9768    0.9873 H   0  0  0  0  0  0  0  0  0  0  0  0
   -4.1375    3.1515    2.5169 H   0  0  0  0  0  0  0  0  0  0  0  0
   -3.9694    0.8423    1.5969 H   0  0  0  0  0  0  0  0  0  0  0  0
   -2.3225    1.5365    1.5056 H   0  0  0  0  0  0  0  0  0  0  0  0
   -4.3808    1.2104   -0.7827 H   0  0  0  0  0  0  0  0  0  0  0  0
   -1.2989   -2.1249   -1.5951 H   0  0  0  0  0  0  0  0  0  0  0  0
   -0.2231   -5.7303   -2.0120 H   0  0  0  0  0  0  0  0  0  0  0  0
   -0.3002   -4.0100   -2.5117 H   0  0  0  0  0  0  0  0  0  0  0  0
   -0.1744   -4.8805    0.4545 H   0  0  0  0  0  0  0  0  0  0  0  0
    0.1282   -3.2529   -0.2197 H   0  0  0  0  0  0  0  0  0  0  0  0
    2.0338   -4.9338   -1.5748 H   0  0  0  0  0  0  0  0  0  0  0  0
    1.9532   -5.6095    0.0789 H   0  0  0  0  0  0  0  0  0  0  0  0
    2.7090   -2.7681   -0.8095 H   0  0  0  0  0  0  0  0  0  0  0  0
    3.7018   -3.9869    0.0793 H   0  0  0  0  0  0  0  0  0  0  0  0
    4.5486   -1.7714    0.5570 H   0  0  0  0  0  0  0  0  0  0  0  0
    5.4396    0.2003    1.6397 H   0  0  0  0  0  0  0  0  0  0  0  0
    2.8380    2.1287    5.1878 H   0  0  0  0  0  0  0  0  0  0  0  0
    6.2113    1.9982    2.6800 H   0  0  0  0  0  0  0  0  0  0  0  0
    2.0842    0.2056    4.3737 H   0  0  0  0  0  0  0  0  0  0  0  0
    1.2032   -1.7856    3.2668 H   0  0  0  0  0  0  0  0  0  0  0  0
  1  2  1  0
  2  3  1  0
  3  4  2  0
  4  5  1  0
  5  6  2  0
  6  7  1  0
  7  8  2  0
  8  9  1  0
  9 10  1  0
 10 11  1  0
 11 12  1  0
 12 13  1  0
 13 14  1  0
 14 15  1  0
 15 16  1  0
  9 17  1  0
 17 18  2  0
 17 19  1  0
 19 20  1  0
 20 21  1  0
 21 22  2  0
 22 23  1  0
 23 24  1  0
  6 25  1  0
 25 26  2  0
 26 27  1  0
 27 28  1  0
 28 29  1  0
 29 30  1  0
 30 31  1  0
 31 32  1  0
 32 33  1  0
 33 34  2  0
 34 35  1  0
 35 36  2  0
 36 37  1  0
 37 38  1  0
 38 39  2  0
 39 40  1  0
 40 41  1  0
 36 42  1  0
 42 43  2  0
 26  3  1  0
 43 33  1  0
 24  7  1  0
 41 37  2  0
 16 10  1  0
 24 19  1  0
  1 44  1  0
  1 45  1  0
  1 46  1  0
  4 47  1  0
  5 48  1  0
 10 49  1  0
 11 50  1  0
 11 51  1  0
 12 52  1  0
 12 53  1  0
 13 54  1  0
 13 55  1  0
 14 56  1  0
 14 57  1  0
 15 58  1  0
 15 59  1  0
 16 60  1  0
 16 61  1  0
 19 62  1  6
 20 63  1  0
 20 64  1  0
 21 65  1  0
 22 66  1  0
 23 67  1  0
 23 68  1  0
 24 69  1  6
 25 70  1  0
 28 71  1  0
 28 72  1  0
 29 73  1  0
 29 74  1  0
 30 75  1  0
 30 76  1  0
 31 77  1  0
 31 78  1  0
 34 79  1  0
 35 80  1  0
 38 81  1  0
 41 82  1  0
 42 83  1  0
 43 84  1  0
M  CHG  3  38   1  40  -1  41   1
M  END
>  <UniqueID>  (9) 
8

>  <SMILES>  (9) 
COc1ccc(C2=NN(C3CCCCCC3)C(=O)[C@@H]3CC=CC[C@H]23)cc1OCCCCOc1ccc(-c2[nH+]n[n-][nH+]2)cc1

>  <Energy>  (9) 
133.94084477745054

>  <Genealogy>  (9) 
COc1ccc(C2=NN(C3CCCCCC3)C(=O)[C@@H]3CC=CC[C@H]23)cc1OCCCCOc1ccc(-c2[nH+]n[n-][nH+]2)cc1 (protonated)
COc1ccc(C2=NN(C3CCCCCC3)C(=O)[C@@H]3CC=CC[C@H]23)cc1OCCCCOc1ccc(-c2[nH+]n[n-][nH+]2)cc1 (3D coordinates assigned)
COc1ccc(C2=NN(C3CCCCCC3)C(=O)[C@@H]3CC=CC[C@H]23)cc1OCCCCOc1ccc(-c2[nH+]n[n-][nH+]2)cc1 (nonaromatic ring conformer: 133.94084477745054 kcal/mol)

$$$$
bc02
     RDKit          3D

 85 90  0  0  0  0  0  0  0  0999 V2000
    4.5868   -3.4513    0.5945 C   0  0  0  0  0  0  0  0  0  0  0  0
    3.2834   -3.4961    1.1642 O   0  0  0  0  0  0  0  0  0  0  0  0
    2.4239   -2.3910    1.2664 C   0  0  0  0  0  0  0  0  0  0  0  0
    2.8387   -1.0918    0.9302 C   0  0  0  0  0  0  0  0  0  0  0  0
    1.9525   -0.0190    1.0130 C   0  0  0  0  0  0  0  0  0  0  0  0
    0.6300   -0.2143    1.4495 C   0  0  0  0  0  0  0  0  0  0  0  0
   -0.3342    0.9201    1.5554 C   0  0  0  0  0  0  0  0  0  0  0  0
   -1.6033    0.6478    1.6865 N   0  0  0  0  0  0  0  0  0  0  0  0
   -2.6584    1.5921    1.7272 N   0  0  2  0  0  4  0  0  0  0  0  0
   -3.1987    1.8638    0.3588 C   0  0  0  0  0  0  0  0  0  0  0  0
   -4.6239    2.4779    0.3978 C   0  0  0  0  0  0  0  0  0  0  0  0
   -5.7612    1.4981    0.7518 C   0  0  0  0  0  0  0  0  0  0  0  0
   -6.1454    0.5958   -0.4323 C   0  0  0  0  0  0  0  0  0  0  0  0
   -5.3246   -0.7022   -0.5483 C   0  0  0  0  0  0  0  0  0  0  0  0
   -3.8561   -0.6130   -0.1045 C   0  0  0  0  0  0  0  0  0  0  0  0
   -3.1278    0.6471   -0.6093 C   0  0  0  0  0  0  0  0  0  0  0  0
   -2.2335    2.8069    2.4033 C   0  0  0  0  0  0  0  0  0  0  0  0
   -3.0526    3.4706    3.0208 O   0  0  0  0  0  0  0  0  0  0  0  0
   -0.7733    3.2097    2.4621 C   0  0  2  0  0  0  0  0  0  0  0  0
   -0.5551    4.7101    2.2169 C   0  0  0  0  0  0  0  0  0  0  0  0
   -0.7640    5.0672    0.7753 C   0  0  0  0  0  0  0  0  0  0  0  0
   -0.3952    4.2373   -0.2058 C   0  0  0  0  0  0  0  0  0  0  0  0
    0.2096    2.8796    0.0504 C   0  0  0  0  0  0  0  0  0  0  0  0
    0.1160    2.3645    1.5191 C   0  0  2  0  0  0  0  0  0  0  0  0
    0.2180   -1.5209    1.7807 C   0  0  0  0  0  0  0  0  0  0  0  0
    1.1080   -2.6066    1.6935 C   0  0  0  0  0  0  0  0  0  0  0  0
    0.7197   -3.9174    2.0172 O   0  0  0  0  0  0  0  0  0  0  0  0
   -0.6205   -4.4159    1.9801 C   0  0  0  0  0  0  0  0  0  0  0  0
   -1.1738   -4.4113    0.5489 C   0  0  0  0  0  0  0  0  0  0  0  0
   -0.2529   -5.1857   -0.4079 C   0  0  0  0  0  0  0  0  0  0  0  0
   -0.7296   -5.1320   -1.8676 C   0  0  0  0  0  0  0  0  0  0  0  0
   -1.0657   -3.8058   -2.2808 O   0  0  0  0  0  0  0  0  0  0  0  0
   -0.1754   -2.7260   -2.3915 C   0  0  0  0  0  0  0  0  0  0  0  0
   -0.7139   -1.4502   -2.5800 C   0  0  0  0  0  0  0  0  0  0  0  0
    0.1137   -0.3268   -2.6312 C   0  0  0  0  0  0  0  0  0  0  0  0
    1.5037   -0.4625   -2.4940 C   0  0  0  0  0  0  0  0  0  0  0  0
    2.3853    0.7248   -2.4718 C   0  0  0  0  0  0  0  0  0  0  0  0
    3.6360    0.7302   -1.9715 N   0  0  0  0  0  0  0  0  0  0  0  0
    4.0420    1.9814   -2.1161 N   0  0  0  0  0  4  0  0  0  0  0  0
    3.1039    2.7207   -2.6808 N   0  0  0  0  0  2  0  0  0  0  0  0
    2.0539    1.9542   -2.9105 N   0  0  0  0  0  4  0  0  0  0  0  0
    2.0492   -1.7466   -2.3425 C   0  0  0  0  0  0  0  0  0  0  0  0
    1.2208   -2.8719   -2.3075 C   0  0  0  0  0  0  0  0  0  0  0  0
    5.0232   -4.4703    0.6106 H   0  0  0  0  0  0  0  0  0  0  0  0
    5.2411   -2.7765    1.1848 H   0  0  0  0  0  0  0  0  0  0  0  0
    4.5279   -3.1078   -0.4598 H   0  0  0  0  0  0  0  0  0  0  0  0
    3.8456   -0.9021    0.5873 H   0  0  0  0  0  0  0  0  0  0  0  0
    2.3123    0.9553    0.7160 H   0  0  0  0  0  0  0  0  0  0  0  0
   -3.4019    1.1543    2.3152 H   0  0  0  0  0  0  0  0  0  0  0  0
   -2.5685    2.6424   -0.1171 H   0  0  0  0  0  0  0  0  0  0  0  0
   -4.8397    2.9510   -0.5867 H   0  0  0  0  0  0  0  0  0  0  0  0
   -4.6475    3.3128    1.1263 H   0  0  0  0  0  0  0  0  0  0  0  0
   -6.6549    2.1115    1.0043 H   0  0  0  0  0  0  0  0  0  0  0  0
   -5.5328    0.8922    1.6549 H   0  0  0  0  0  0  0  0  0  0  0  0
   -6.0805    1.1626   -1.3845 H   0  0  0  0  0  0  0  0  0  0  0  0
   -7.2144    0.3096   -0.3268 H   0  0  0  0  0  0  0  0  0  0  0  0
   -5.8183   -1.5008    0.0493 H   0  0  0  0  0  0  0  0  0  0  0  0
   -5.3568   -1.0362   -1.6124 H   0  0  0  0  0  0  0  0  0  0  0  0
   -3.3301   -1.5068   -0.5080 H   0  0  0  0  0  0  0  0  0  0  0  0
   -3.7984   -0.7023    0.9992 H   0  0  0  0  0  0  0  0  0  0  0  0
   -3.5171    0.9375   -1.6104 H   0  0  0  0  0  0  0  0  0  0  0  0
   -2.0603    0.3910   -0.7714 H   0  0  0  0  0  0  0  0  0  0  0  0
   -0.4494    3.0058    3.5064 H   0  0  0  0  0  0  0  0  0  0  0  0
    0.4910    4.9710    2.4933 H   0  0  0  0  0  0  0  0  0  0  0  0
   -1.2249    5.3216    2.8587 H   0  0  0  0  0  0  0  0  0  0  0  0
   -1.2149    6.0242    0.5283 H   0  0  0  0  0  0  0  0  0  0  0  0
   -0.5274    4.5565   -1.2378 H   0  0  0  0  0  0  0  0  0  0  0  0
    1.2785    2.9374   -0.2421 H   0  0  0  0  0  0  0  0  0  0  0  0
   -0.2622    2.1621   -0.6551 H   0  0  0  0  0  0  0  0  0  0  0  0
    1.1377    2.4293    1.9558 H   0  0  0  0  0  0  0  0  0  0  0  0
   -0.7914   -1.6879    2.1255 H   0  0  0  0  0  0  0  0  0  0  0  0
   -1.2764   -3.8256    2.6537 H   0  0  0  0  0  0  0  0  0  0  0  0
   -0.6155   -5.4593    2.3596 H   0  0  0  0  0  0  0  0  0  0  0  0
   -1.2818   -3.3584    0.2125 H   0  0  0  0  0  0  0  0  0  0  0  0
   -2.1854   -4.8733    0.5473 H   0  0  0  0  0  0  0  0  0  0  0  0
   -0.2028   -6.2497   -0.0889 H   0  0  0  0  0  0  0  0  0  0  0  0
    0.7763   -4.7810   -0.3448 H   0  0  0  0  0  0  0  0  0  0  0  0
    0.0480   -5.5535   -2.5393 H   0  0  0  0  0  0  0  0  0  0  0  0
   -1.6371   -5.7641   -1.9696 H   0  0  0  0  0  0  0  0  0  0  0  0
   -1.7855   -1.3253   -2.6634 H   0  0  0  0  0  0  0  0  0  0  0  0
   -0.3420    0.6458   -2.7453 H   0  0  0  0  0  0  0  0  0  0  0  0
    4.9790    2.3362   -1.8235 H   0  0  0  0  0  0  0  0  0  0  0  0
    1.1665    2.2735   -3.3514 H   0  0  0  0  0  0  0  0  0  0  0  0
    3.1193   -1.8837   -2.2558 H   0  0  0  0  0  0  0  0  0  0  0  0
    1.6822   -3.8456   -2.2193 H   0  0  0  0  0  0  0  0  0  0  0  0
  1  2  1  0
  2  3  1  0
  3  4  2  0
  4  5  1  0
  5  6  2  0
  6  7  1  0
  7  8  2  0
  8  9  1  0
  9 10  1  0
 10 11  1  0
 11 12  1  0
 12 13  1  0
 13 14  1  0
 14 15  1  0
 15 16  1  0
  9 17  1  0
 17 18  2  0
 17 19  1  0
 19 20  1  0
 20 21  1  0
 21 22  2  0
 22 23  1  0
 23 24  1  0
  6 25  1  0
 25 26  2  0
 26 27  1  0
 27 28  1  0
 28 29  1  0
 29 30  1  0
 30 31  1  0
 31 32  1  0
 32 33  1  0
 33 34  2  0
 34 35  1  0
 35 36  2  0
 36 37  1  0
 37 38  1  0
 38 39  2  0
 39 40  1  0
 40 41  1  0
 36 42  1  0
 42 43  2  0
 26  3  1  0
 43 33  1  0
 24  7  1  0
 41 37  2  0
 16 10  1  0
 24 19  1  0
  1 44  1  0
  1 45  1  0
  1 46  1  0
  4 47  1  0
  5 48  1  0
  9 49  1  1
 10 50  1  0
 11 51  1  0
 11 52  1  0
 12 53  1  0
 12 54  1  0
 13 55  1  0
 13 56  1  0
 14 57  1  0
 14 58  1  0
 15 59  1  0
 15 60  1  0
 16 61  1  0
 16 62  1  0
 19 63  1  1
 20 64  1  0
 20 65  1  0
 21 66  1  0
 22 67  1  0
 23 68  1  0
 23 69  1  0
 24 70  1  1
 25 71  1  0
 28 72  1  0
 28 73  1  0
 29 74  1  0
 29 75  1  0
 30 76  1  0
 30 77  1  0
 31 78  1  0
 31 79  1  0
 34 80  1  0
 35 81  1  0
 39 82  1  0
 41 83  1  0
 42 84  1  0
 43 85  1  0
M  CHG  4   9   1  39   1  40  -1  41   1
M  END
>  <UniqueID>  (10) 
9

>  <SMILES>  (10) 
COc1ccc(C2=N[N@H+](C3CCCCCC3)C(=O)[C@@H]3CC=CC[C@H]23)cc1OCCCCOc1ccc(-c2n[nH+][n-][nH+]2)cc1

>  <Energy>  (10) 
137.14735818797735

>  <Genealogy>  (10) 
COc1ccc(C2=N[NH+](C3CCCCCC3)C(=O)[C@@H]3CC=CC[C@H]23)cc1OCCCCOc1ccc(-c2n[nH+][n-][nH+]2)cc1 (protonated)
COc1ccc(C2=N[NH+](C3CCCCCC3)C(=O)[C@@H]3CC=CCC23)cc1OCCCCOc1ccc(-c2n[nH+][n-][nH+]2)cc1 (tautomer)
COc1ccc(C2=N[N@H+](C3CCCCCC3)C(=O)[C@@H]3CC=CC[C@H]23)cc1OCCCCOc1ccc(-c2n[nH+][n-][nH+]2)cc1 (chirality)
COc1ccc(C2=N[N@H+](C3CCCCCC3)C(=O)[C@@H]3CC=CC[C@H]23)cc1OCCCCOc1ccc(-c2n[nH+][n-][nH+]2)cc1 (3D coordinates assigned)
COc1ccc(C2=N[N@H+](C3CCCCCC3)C(=O)[C@@H]3CC=CC[C@H]23)cc1OCCCCOc1ccc(-c2n[nH+][n-][nH+]2)cc1 (nonaromatic ring conformer: 137.14735818797735 kcal/mol)

$$$$
bc02
     RDKit          3D

 84 89  0  0  0  0  0  0  0  0999 V2000
    0.8920   -1.0015   -5.3234 C   0  0  0  0  0  0  0  0  0  0  0  0
    0.7118   -1.6383   -4.0641 O   0  0  0  0  0  0  0  0  0  0  0  0
   -0.1064   -1.1476   -3.0332 C   0  0  0  0  0  0  0  0  0  0  0  0
   -0.9431   -0.0301   -3.2129 C   0  0  0  0  0  0  0  0  0  0  0  0
   -1.7526    0.4208   -2.1696 C   0  0  0  0  0  0  0  0  0  0  0  0
   -1.7440   -0.2374   -0.9331 C   0  0  0  0  0  0  0  0  0  0  0  0
   -2.5855    0.2437    0.1807 C   0  0  0  0  0  0  0  0  0  0  0  0
   -1.9907    0.5403    1.3002 N   0  0  0  0  0  0  0  0  0  0  0  0
   -2.5956    1.1247    2.4418 N   0  0  2  0  0  4  0  0  0  0  0  0
   -1.9397    0.5846    3.6646 C   0  0  0  0  0  0  0  0  0  0  0  0
   -0.4352    0.9887    3.7235 C   0  0  0  0  0  0  0  0  0  0  0  0
    0.5471   -0.0300    3.1145 C   0  0  0  0  0  0  0  0  0  0  0  0
    1.0068   -1.0835    4.1335 C   0  0  0  0  0  0  0  0  0  0  0  0
   -0.0441   -2.1648    4.4063 C   0  0  0  0  0  0  0  0  0  0  0  0
   -1.3693   -1.6054    4.9457 C   0  0  0  0  0  0  0  0  0  0  0  0
   -2.2115   -0.9396    3.8448 C   0  0  0  0  0  0  0  0  0  0  0  0
   -4.0389    0.9468    2.4757 C   0  0  0  0  0  0  0  0  0  0  0  0
   -4.6824    1.4310    3.3996 O   0  0  0  0  0  0  0  0  0  0  0  0
   -4.7514    0.1692    1.3938 C   0  0  1  0  0  0  0  0  0  0  0  0
   -6.2530    0.5147    1.3077 C   0  0  0  0  0  0  0  0  0  0  0  0
   -6.9121   -0.1032    0.0992 C   0  0  0  0  0  0  0  0  0  0  0  0
   -6.2172   -0.4821   -0.9876 C   0  0  0  0  0  0  0  0  0  0  0  0
   -4.7095   -0.4971   -1.0230 C   0  0  0  0  0  0  0  0  0  0  0  0
   -4.0799    0.4395    0.0365 C   0  0  2  0  0  0  0  0  0  0  0  0
   -0.8916   -1.3340   -0.7409 C   0  0  0  0  0  0  0  0  0  0  0  0
   -0.0705   -1.7946   -1.7867 C   0  0  0  0  0  0  0  0  0  0  0  0
    0.7961   -2.8900   -1.6301 O   0  0  0  0  0  0  0  0  0  0  0  0
    1.2505   -3.4183   -0.3809 C   0  0  0  0  0  0  0  0  0  0  0  0
    2.1184   -2.4034    0.3761 C   0  0  0  0  0  0  0  0  0  0  0  0
    3.3042   -1.9184   -0.4676 C   0  0  0  0  0  0  0  0  0  0  0  0
    4.0099   -0.7252    0.1909 C   0  0  0  0  0  0  0  0  0  0  0  0
    4.8778   -0.0802   -0.7431 O   0  0  0  0  0  0  0  0  0  0  0  0
    4.4500    0.6505   -1.8654 C   0  0  0  0  0  0  0  0  0  0  0  0
    5.3971    0.9942   -2.8334 C   0  0  0  0  0  0  0  0  0  0  0  0
    5.0118    1.6558   -4.0026 C   0  0  0  0  0  0  0  0  0  0  0  0
    3.6660    1.9962   -4.2212 C   0  0  0  0  0  0  0  0  0  0  0  0
    3.2620    2.6429   -5.4921 C   0  0  0  0  0  0  0  0  0  0  0  0
    4.1237    3.0568   -6.4414 N   0  0  0  0  0  0  0  0  0  0  0  0
    3.3619    3.5347   -7.4149 N   0  0  0  0  0  0  0  0  0  0  0  0
    2.0835    3.4184   -7.0878 N   0  0  0  0  0  2  0  0  0  0  0  0
    1.9966    2.8662   -5.8921 N   0  0  0  0  0  4  0  0  0  0  0  0
    2.7215    1.6954   -3.2253 C   0  0  0  0  0  0  0  0  0  0  0  0
    3.1084    1.0324   -2.0584 C   0  0  0  0  0  0  0  0  0  0  0  0
   -0.0740   -0.9538   -5.8708 H   0  0  0  0  0  0  0  0  0  0  0  0
    1.6113   -1.5905   -5.9297 H   0  0  0  0  0  0  0  0  0  0  0  0
    1.2979    0.0206   -5.1790 H   0  0  0  0  0  0  0  0  0  0  0  0
   -0.9784    0.4949   -4.1589 H   0  0  0  0  0  0  0  0  0  0  0  0
   -2.3821    1.2887   -2.3266 H   0  0  0  0  0  0  0  0  0  0  0  0
   -2.4265    2.1566    2.3859 H   0  0  0  0  0  0  0  0  0  0  0  0
   -2.4024    1.0883    4.5462 H   0  0  0  0  0  0  0  0  0  0  0  0
   -0.2970    1.9608    3.1988 H   0  0  0  0  0  0  0  0  0  0  0  0
   -0.1535    1.1930    4.7811 H   0  0  0  0  0  0  0  0  0  0  0  0
    0.1138   -0.5231    2.2232 H   0  0  0  0  0  0  0  0  0  0  0  0
    1.4502    0.5222    2.7714 H   0  0  0  0  0  0  0  0  0  0  0  0
    1.3037   -0.5960    5.0891 H   0  0  0  0  0  0  0  0  0  0  0  0
    1.9129   -1.5848    3.7284 H   0  0  0  0  0  0  0  0  0  0  0  0
   -0.2203   -2.7609    3.4832 H   0  0  0  0  0  0  0  0  0  0  0  0
    0.3744   -2.8622    5.1638 H   0  0  0  0  0  0  0  0  0  0  0  0
   -1.9496   -2.4618    5.3529 H   0  0  0  0  0  0  0  0  0  0  0  0
   -1.1903   -0.9093    5.7934 H   0  0  0  0  0  0  0  0  0  0  0  0
   -3.2825   -1.0648    4.1216 H   0  0  0  0  0  0  0  0  0  0  0  0
   -2.0822   -1.4838    2.8835 H   0  0  0  0  0  0  0  0  0  0  0  0
   -4.6506   -0.9122    1.6452 H   0  0  0  0  0  0  0  0  0  0  0  0
   -6.3863    1.6181    1.2495 H   0  0  0  0  0  0  0  0  0  0  0  0
   -6.7707    0.1467    2.2217 H   0  0  0  0  0  0  0  0  0  0  0  0
   -7.9977   -0.1508    0.0710 H   0  0  0  0  0  0  0  0  0  0  0  0
   -6.7551   -0.8924   -1.8368 H   0  0  0  0  0  0  0  0  0  0  0  0
   -4.3898   -0.1921   -2.0401 H   0  0  0  0  0  0  0  0  0  0  0  0
   -4.3719   -1.5433   -0.8515 H   0  0  0  0  0  0  0  0  0  0  0  0
   -4.2591    1.4972   -0.2644 H   0  0  0  0  0  0  0  0  0  0  0  0
   -0.8913   -1.8345    0.2171 H   0  0  0  0  0  0  0  0  0  0  0  0
    1.8562   -4.3253   -0.5866 H   0  0  0  0  0  0  0  0  0  0  0  0
    0.3876   -3.7336    0.2444 H   0  0  0  0  0  0  0  0  0  0  0  0
    2.4955   -2.8694    1.3120 H   0  0  0  0  0  0  0  0  0  0  0  0
    1.4891   -1.5379    0.6559 H   0  0  0  0  0  0  0  0  0  0  0  0
    4.0317   -2.7475   -0.6051 H   0  0  0  0  0  0  0  0  0  0  0  0
    2.9454   -1.6226   -1.4734 H   0  0  0  0  0  0  0  0  0  0  0  0
    4.6215   -1.0961    1.0400 H   0  0  0  0  0  0  0  0  0  0  0  0
    3.2843    0.0102    0.6017 H   0  0  0  0  0  0  0  0  0  0  0  0
    6.4346    0.7244   -2.6894 H   0  0  0  0  0  0  0  0  0  0  0  0
    5.7669    1.8801   -4.7458 H   0  0  0  0  0  0  0  0  0  0  0  0
    1.1020    2.6441   -5.4041 H   0  0  0  0  0  0  0  0  0  0  0  0
    1.6795    1.9622   -3.3426 H   0  0  0  0  0  0  0  0  0  0  0  0
    2.3497    0.8088   -1.3226 H   0  0  0  0  0  0  0  0  0  0  0  0
  1  2  1  0
  2  3  1  0
  3  4  2  0
  4  5  1  0
  5  6  2  0
  6  7  1  0
  7  8  2  0
  8  9  1  0
  9 10  1  0
 10 11  1  0
 11 12  1  0
 12 13  1  0
 13 14  1  0
 14 15  1  0
 15 16  1  0
  9 17  1  0
 17 18  2  0
 17 19  1  0
 19 20  1  0
 20 21  1  0
 21 22  2  0
 22 23  1  0
 23 24  1  0
  6 25  1  0
 25 26  2  0
 26 27  1  0
 27 28  1  0
 28 29  1  0
 29 30  1  0
 30 31  1  0
 31 32  1  0
 32 33  1  0
 33 34  2  0
 34 35  1  0
 35 36  2  0
 36 37  1  0
 37 38  1  0
 38 39  2  0
 39 40  1  0
 40 41  1  0
 36 42  1  0
 42 43  2  0
 26  3  1  0
 43 33  1  0
 24  7  1  0
 41 37  2  0
 16 10  1  0
 24 19  1  0
  1 44  1  0
  1 45  1  0
  1 46  1  0
  4 47  1  0
  5 48  1  0
  9 49  1  6
 10 50  1  0
 11 51  1  0
 11 52  1  0
 12 53  1  0
 12 54  1  0
 13 55  1  0
 13 56  1  0
 14 57  1  0
 14 58  1  0
 15 59  1  0
 15 60  1  0
 16 61  1  0
 16 62  1  0
 19 63  1  1
 20 64  1  0
 20 65  1  0
 21 66  1  0
 22 67  1  0
 23 68  1  0
 23 69  1  0
 24 70  1  6
 25 71  1  0
 28 72  1  0
 28 73  1  0
 29 74  1  0
 29 75  1  0
 30 76  1  0
 30 77  1  0
 31 78  1  0
 31 79  1  0
 34 80  1  0
 35 81  1  0
 41 82  1  0
 42 83  1  0
 43 84  1  0
M  CHG  3   9   1  40  -1  41   1
M  END
>  <UniqueID>  (11) 
10

>  <SMILES>  (11) 
COc1ccc(C2=N[N@H+](C3CCCCCC3)C(=O)[C@H]3CC=CC[C@H]23)cc1OCCCCOc1ccc(-c2nn[n-][nH+]2)cc1

>  <Energy>  (11) 
137.8989066846923

>  <Genealogy>  (11) 
COc1ccc(C2=N[NH+](C3CCCCCC3)C(=O)[C@@H]3CC=CC[C@H]23)cc1OCCCCOc1ccc(-c2nn[n-][nH+]2)cc1 (protonated)
COc1ccc(C2=N[NH+](C3CCCCCC3)C(=O)C3CC=CC[C@H]23)cc1OCCCCOc1ccc(-c2nn[n-][nH+]2)cc1 (tautomer)
COc1ccc(C2=N[N@H+](C3CCCCCC3)C(=O)[C@H]3CC=CC[C@H]23)cc1OCCCCOc1ccc(-c2nn[n-][nH+]2)cc1 (chirality)
COc1ccc(C2=N[N@H+](C3CCCCCC3)C(=O)[C@H]3CC=CC[C@H]23)cc1OCCCCOc1ccc(-c2nn[n-][nH+]2)cc1 (3D coordinates assigned)
COc1ccc(C2=N[N@H+](C3CCCCCC3)C(=O)[C@H]3CC=CC[C@H]23)cc1OCCCCOc1ccc(-c2nn[n-][nH+]2)cc1 (nonaromatic ring conformer: 137.8989066846923 kcal/mol)

$$$$
sah
     RDKit          3D

 47 49  0  0  0  0  0  0  0  0999 V2000
    3.3208    5.1397   -1.1183 N   0  0  0  0  0  0  0  0  0  0  0  0
    2.6393    3.9587   -0.6887 C   0  0  0  0  0  0  0  0  0  0  0  0
    3.3250    2.7959   -0.4610 N   0  0  0  0  0  4  0  0  0  0  0  0
    2.6765    1.6552   -0.0575 C   0  0  0  0  0  0  0  0  0  0  0  0
    1.3222    1.6556    0.1306 N   0  0  0  0  0  4  0  0  0  0  0  0
    0.6453    2.8113   -0.0876 C   0  0  0  0  0  0  0  0  0  0  0  0
    1.2628    3.9455   -0.4917 C   0  0  0  0  0  0  0  0  0  0  0  0
    0.3682    4.9359   -0.6659 N   0  0  0  0  0  0  0  0  0  0  0  0
   -0.8108    4.3367   -0.3449 C   0  0  0  0  0  0  0  0  0  0  0  0
   -0.6748    3.0357    0.0205 N   0  0  0  0  0  0  0  0  0  0  0  0
   -1.7552    2.1110    0.3753 C   0  0  2  0  0  0  0  0  0  0  0  0
   -1.4208    1.3838    1.5307 O   0  0  0  0  0  0  0  0  0  0  0  0
   -2.1158    0.1560    1.4560 C   0  0  2  0  0  0  0  0  0  0  0  0
   -1.1979   -0.9676    1.9515 C   0  0  0  0  0  0  0  0  0  0  0  0
   -2.1208   -2.5367    2.1231 S   0  0  0  0  0  0  0  0  0  0  0  0
   -0.6582   -3.5874    2.4603 C   0  0  0  0  0  0  0  0  0  0  0  0
   -0.3859   -4.5530    1.2983 C   0  0  0  0  0  0  0  0  0  0  0  0
    0.1469   -3.8602    0.0267 C   0  0  2  0  0  0  0  0  0  0  0  0
    0.2178   -4.8315   -1.0661 N   0  0  0  0  0  0  0  0  0  0  0  0
    1.4998   -3.2317    0.2514 C   0  0  0  0  0  0  0  0  0  0  0  0
    1.7365   -2.0729   -0.1808 O   0  0  0  0  0  0  0  0  0  0  0  0
    2.5114   -3.9446    0.8843 O   0  0  0  0  0  1  0  0  0  0  0  0
   -2.5888   -0.0708    0.0072 C   0  0  1  0  0  0  0  0  0  0  0  0
   -3.9949   -0.0754   -0.0326 O   0  0  0  0  0  0  0  0  0  0  0  0
   -2.0190    1.1179   -0.7400 C   0  0  1  0  0  0  0  0  0  0  0  0
   -2.9157    1.6512   -1.6800 O   0  0  0  0  0  0  0  0  0  0  0  0
    4.3546    5.1305   -1.2632 H   0  0  0  0  0  0  0  0  0  0  0  0
    2.7991    6.0273   -1.2929 H   0  0  0  0  0  0  0  0  0  0  0  0
    4.3601    2.7673   -0.5988 H   0  0  0  0  0  0  0  0  0  0  0  0
    3.2412    0.7465    0.1104 H   0  0  0  0  0  0  0  0  0  0  0  0
    0.8355    0.7839    0.4285 H   0  0  0  0  0  0  0  0  0  0  0  0
   -1.7629    4.8500   -0.3855 H   0  0  0  0  0  0  0  0  0  0  0  0
   -2.6827    2.6922    0.5893 H   0  0  0  0  0  0  0  0  0  0  0  0
   -2.9897    0.2161    2.1437 H   0  0  0  0  0  0  0  0  0  0  0  0
   -0.7846   -0.6917    2.9453 H   0  0  0  0  0  0  0  0  0  0  0  0
   -0.3538   -1.0979    1.2451 H   0  0  0  0  0  0  0  0  0  0  0  0
   -0.8893   -4.1894    3.3643 H   0  0  0  0  0  0  0  0  0  0  0  0
    0.2477   -2.9902    2.6970 H   0  0  0  0  0  0  0  0  0  0  0  0
    0.3445   -5.3208    1.6359 H   0  0  0  0  0  0  0  0  0  0  0  0
   -1.3289   -5.0896    1.0535 H   0  0  0  0  0  0  0  0  0  0  0  0
   -0.5750   -3.0682   -0.2702 H   0  0  0  0  0  0  0  0  0  0  0  0
    0.5047   -4.3330   -1.9403 H   0  0  0  0  0  0  0  0  0  0  0  0
    0.9572   -5.5414   -0.8541 H   0  0  0  0  0  0  0  0  0  0  0  0
   -2.1854   -1.0181   -0.4243 H   0  0  0  0  0  0  0  0  0  0  0  0
   -4.2574   -0.5404   -0.8696 H   0  0  0  0  0  0  0  0  0  0  0  0
   -1.0617    0.8270   -1.2333 H   0  0  0  0  0  0  0  0  0  0  0  0
   -2.8971    1.0404   -2.4622 H   0  0  0  0  0  0  0  0  0  0  0  0
  1  2  1  0
  2  3  2  0
  3  4  1  0
  4  5  2  0
  5  6  1  0
  6  7  2  0
  7  8  1  0
  8  9  2  0
  9 10  1  0
 10 11  1  0
 11 12  1  0
 12 13  1  0
 13 14  1  0
 14 15  1  0
 15 16  1  0
 16 17  1  0
 17 18  1  0
 18 19  1  0
 18 20  1  0
 20 21  2  0
 20 22  1  0
 13 23  1  0
 23 24  1  0
 23 25  1  0
 25 26  1  0
  7  2  1  0
 25 11  1  0
 10  6  1  0
  1 27  1  0
  1 28  1  0
  3 29  1  0
  4 30  1  0
  5 31  1  0
  9 32  1  0
 11 33  1  1
 13 34  1  1
 14 35  1  0
 14 36  1  0
 16 37  1  0
 16 38  1  0
 17 39  1  0
 17 40  1  0
 18 41  1  6
 19 42  1  0
 19 43  1  0
 23 44  1  6
 24 45  1  0
 25 46  1  6
 26 47  1  0
M  CHG  3   3   1   5   1  22  -1
M  END
>  <UniqueID>  (12) 
11

>  <SMILES>  (12) 
Nc1[nH+]c[nH+]c2c1ncn2[C@@H]1O[C@H](CSCC[C@H](N)C(=O)[O-])[C@@H](O)[C@H]1O

>  <Energy>  (12) 
80.42354841114302

>  <Genealogy>  (12) 
Nc1[nH+]c[nH+]c2c1ncn2[C@@H]1O[C@H](CSCC[C@H](N)C(=O)[O-])[C@@H](O)[C@H]1O (protonated)
Nc1[nH+]c[nH+]c2c1ncn2[C@@H]1O[C@H](CSCC[C@H](N)C(=O)[O-])[C@@H](O)[C@H]1O (3D coordinates assigned)
Nc1[nH+]c[nH+]c2c1ncn2[C@@H]1O[C@H](CSCC[C@H](N)C(=O)[O-])[C@@H](O)[C@H]1O (nonaromatic ring conformer: 80.42354841114302 kcal/mol)

$$$$
sah
     RDKit          3D

 46 48  0  0  0  0  0  0  0  0999 V2000
   -2.5569   -4.7758   -0.4008 H   0  0  0  0  0  0  0  0  0  0  0  0
   -2.7289   -3.9057    0.1511 N   0  0  0  0  0  0  0  0  0  0  0  0
   -1.8004   -3.0228    0.3431 C   0  0  0  0  0  0  0  0  0  0  0  0
   -2.0492   -1.8716    1.0792 C   0  0  0  0  0  0  0  0  0  0  0  0
   -1.0689   -0.9568    1.2630 C   0  0  0  0  0  0  0  0  0  0  0  0
    0.1776   -1.1178    0.7588 N   0  0  0  0  0  0  0  0  0  0  0  0
    0.4392   -2.2480    0.0358 C   0  0  0  0  0  0  0  0  0  0  0  0
    1.4275   -2.3976   -0.3785 H   0  0  0  0  0  0  0  0  0  0  0  0
   -0.5405   -3.1883   -0.1720 N   0  0  0  0  0  0  0  0  0  0  0  0
   -0.3089   -4.0390   -0.7333 H   0  0  0  0  0  0  0  0  0  0  0  0
   -1.5374    0.0738    1.9892 N   0  0  0  0  0  0  0  0  0  0  0  0
   -0.8523    1.3060    2.3872 C   0  0  2  0  0  0  0  0  0  0  0  0
   -1.5823    1.9964    2.8697 H   0  0  0  0  0  0  0  0  0  0  0  0
   -0.3301    1.9549    1.2520 O   0  0  0  0  0  0  0  0  0  0  0  0
    0.9093    2.5305    1.6137 C   0  0  2  0  0  0  0  0  0  0  0  0
    0.8307    3.6359    1.5089 H   0  0  0  0  0  0  0  0  0  0  0  0
    2.0036    2.0413    0.6526 C   0  0  0  0  0  0  0  0  0  0  0  0
    2.9796    2.4676    0.9685 H   0  0  0  0  0  0  0  0  0  0  0  0
    2.0933    0.9350    0.6938 H   0  0  0  0  0  0  0  0  0  0  0  0
    1.6901    2.6275   -1.0548 S   0  0  0  0  0  0  0  0  0  0  0  0
    0.8838    1.1016   -1.6528 C   0  0  0  0  0  0  0  0  0  0  0  0
    1.5991    0.2589   -1.5545 H   0  0  0  0  0  0  0  0  0  0  0  0
   -0.0178    0.8987   -1.0405 H   0  0  0  0  0  0  0  0  0  0  0  0
    0.4702    1.2682   -3.1167 C   0  0  0  0  0  0  0  0  0  0  0  0
   -0.1488    2.1898   -3.1982 H   0  0  0  0  0  0  0  0  0  0  0  0
    1.3783    1.4076   -3.7441 H   0  0  0  0  0  0  0  0  0  0  0  0
   -0.3475    0.0688   -3.6382 C   0  0  1  0  0  0  0  0  0  0  0  0
   -1.1754   -0.1505   -2.9252 H   0  0  0  0  0  0  0  0  0  0  0  0
   -0.9544    0.4184   -4.9689 C   0  0  0  0  0  0  0  0  0  0  0  0
   -0.2284    0.5249   -5.9930 O   0  0  0  0  0  0  0  0  0  0  0  0
   -2.3194    0.6565   -5.0684 O   0  0  0  0  0  1  0  0  0  0  0  0
    0.4989   -1.1194   -3.7777 N   0  0  0  0  0  0  0  0  0  0  0  0
    0.7485   -1.4648   -2.8239 H   0  0  0  0  0  0  0  0  0  0  0  0
   -0.0729   -1.8851   -4.2045 H   0  0  0  0  0  0  0  0  0  0  0  0
    1.2320    2.1698    3.0712 C   0  0  1  0  0  0  0  0  0  0  0  0
    2.2932    1.8491    3.2043 H   0  0  0  0  0  0  0  0  0  0  0  0
    0.9459    3.2706    3.8992 O   0  0  0  0  0  0  0  0  0  0  0  0
    1.4518    3.1356    4.7427 H   0  0  0  0  0  0  0  0  0  0  0  0
    0.2883    1.0234    3.3494 C   0  0  1  0  0  0  0  0  0  0  0  0
    0.7885    0.0597    3.0970 H   0  0  0  0  0  0  0  0  0  0  0  0
   -0.1683    1.0077    4.6772 O   0  0  0  0  0  0  0  0  0  0  0  0
    0.5832    0.6641    5.2275 H   0  0  0  0  0  0  0  0  0  0  0  0
   -2.8321   -0.2595    2.2332 C   0  0  0  0  0  0  0  0  0  0  0  0
   -3.5209    0.3609    2.7924 H   0  0  0  0  0  0  0  0  0  0  0  0
   -3.1743   -1.4542    1.6848 N   0  0  0  0  0  4  0  0  0  0  0  0
   -4.1027   -1.9306    1.7210 H   0  0  0  0  0  0  0  0  0  0  0  0
  1  2  1  0
  2  3  2  0
  3  4  1  0
  4  5  2  0
  5  6  1  0
  6  7  2  0
  7  8  1  0
  7  9  1  0
  9 10  1  0
  5 11  1  0
 11 12  1  0
 12 13  1  1
 12 14  1  0
 14 15  1  0
 15 16  1  1
 15 17  1  0
 17 18  1  0
 17 19  1  0
 17 20  1  0
 20 21  1  0
 21 22  1  0
 21 23  1  0
 21 24  1  0
 24 25  1  0
 24 26  1  0
 24 27  1  0
 27 28  1  1
 27 29  1  0
 29 30  2  0
 29 31  1  0
 27 32  1  0
 32 33  1  0
 32 34  1  0
 15 35  1  0
 35 36  1  6
 35 37  1  0
 37 38  1  0
 35 39  1  0
 39 40  1  6
 39 41  1  0
 41 42  1  0
 11 43  1  0
 43 44  1  0
 43 45  2  0
 45 46  1  0
  9  3  1  0
 39 12  1  0
 45  4  1  0
M  CHG  2  31  -1  45   1
M  END
>  <UniqueID>  (13) 
12

>  <SMILES>  (13) 
[H]/N=c1/[nH]cnc2c1[nH+]cn2[C@@H]1O[C@H](CSCC[C@H](N)C(=O)[O-])[C@@H](O)[C@H]1O

>  <Energy>  (13) 
80.60922095886195

>  <Genealogy>  (13) 
Nc1ncnc2c1[nH+]cn2[C@@H]1O[C@H](CSCC[C@H](N)C(=O)[O-])[C@@H](O)[C@H]1O (protonated)
N=c1[nH]cnc2c1[nH+]cn2[C@@H]1O[C@H](CSCC[C@H](N)C(=O)[O-])[C@@H](O)[C@H]1O (tautomer)
[H]/N=c1/[nH]cnc2c1[nH+]cn2[C@@H]1O[C@H](CSCC[C@H](N)C(=O)[O-])[C@@H](O)[C@H]1O (cis-trans isomerization)
[H]/N=c1/[nH]cnc2c1[nH+]cn2[C@@H]1O[C@H](CSCC[C@H](N)C(=O)[O-])[C@@H](O)[C@H]1O (3D coordinates assigned)
[H]/N=c1/[nH]cnc2c1[nH+]cn2[C@@H]1O[C@H](CSCC[C@H](N)C(=O)[O-])[C@@H](O)[C@H]1O (nonaromatic ring conformer: 80.60922095886195 kcal/mol)

$$$$
sah
     RDKit          3D

 47 49  0  0  0  0  0  0  0  0999 V2000
    2.0022    6.0634   -2.3289 N   0  0  0  0  0  0  0  0  0  0  0  0
    1.7035    5.3496   -1.1269 C   0  0  0  0  0  0  0  0  0  0  0  0
    2.0106    5.8778    0.0985 N   0  0  0  0  0  4  0  0  0  0  0  0
    1.7134    5.2052    1.2580 C   0  0  0  0  0  0  0  0  0  0  0  0
    1.1033    3.9820    1.2152 N   0  0  0  0  0  4  0  0  0  0  0  0
    0.8125    3.4554   -0.0011 C   0  0  0  0  0  0  0  0  0  0  0  0
    1.0874    4.1034   -1.1563 C   0  0  0  0  0  0  0  0  0  0  0  0
    0.6537    3.3916   -2.2133 N   0  0  0  0  0  0  0  0  0  0  0  0
    0.1102    2.2882   -1.6305 C   0  0  0  0  0  0  0  0  0  0  0  0
    0.2039    2.2917   -0.2741 N   0  0  0  0  0  0  0  0  0  0  0  0
   -0.3583    1.3199    0.6686 C   0  0  2  0  0  0  0  0  0  0  0  0
   -0.4179    0.0445    0.0605 O   0  0  0  0  0  0  0  0  0  0  0  0
   -1.7591   -0.3880    0.1011 C   0  0  2  0  0  0  0  0  0  0  0  0
   -2.1088   -1.1585   -1.1793 C   0  0  0  0  0  0  0  0  0  0  0  0
   -0.9961   -2.5904   -1.4324 S   0  0  0  0  0  0  0  0  0  0  0  0
   -1.7070   -3.6893   -0.1472 C   0  0  0  0  0  0  0  0  0  0  0  0
   -0.7214   -3.8979    1.0110 C   0  0  0  0  0  0  0  0  0  0  0  0
    0.5080   -4.7393    0.6146 C   0  0  2  0  0  0  0  0  0  0  0  0
    0.1042   -6.0923    0.2236 N   0  0  0  0  0  0  0  0  0  0  0  0
    1.4907   -4.7894    1.7549 C   0  0  0  0  0  0  0  0  0  0  0  0
    2.6306   -4.2688    1.6304 O   0  0  0  0  0  0  0  0  0  0  0  0
    1.1434   -5.3980    2.9553 O   0  0  0  0  0  1  0  0  0  0  0  0
   -2.6454    0.8344    0.2826 C   0  0  1  0  0  0  0  0  0  0  0  0
   -3.8358    0.5015    0.9491 O   0  0  0  0  0  0  0  0  0  0  0  0
   -1.7656    1.7479    1.0968 C   0  0  1  0  0  0  0  0  0  0  0  0
   -1.9481    1.5133    2.4706 O   0  0  0  0  0  0  0  0  0  0  0  0
    2.4643    6.9987   -2.2875 H   0  0  0  0  0  0  0  0  0  0  0  0
    1.7662    5.6631   -3.2641 H   0  0  0  0  0  0  0  0  0  0  0  0
    2.4737    6.8121    0.1602 H   0  0  0  0  0  0  0  0  0  0  0  0
    1.9600    5.6485    2.2146 H   0  0  0  0  0  0  0  0  0  0  0  0
    0.8699    3.4782    2.0990 H   0  0  0  0  0  0  0  0  0  0  0  0
   -0.3624    1.4970   -2.1972 H   0  0  0  0  0  0  0  0  0  0  0  0
    0.3122    1.2464    1.5527 H   0  0  0  0  0  0  0  0  0  0  0  0
   -1.8838   -1.0587    0.9796 H   0  0  0  0  0  0  0  0  0  0  0  0
   -1.9927   -0.4885   -2.0575 H   0  0  0  0  0  0  0  0  0  0  0  0
   -3.1667   -1.4967   -1.1530 H   0  0  0  0  0  0  0  0  0  0  0  0
   -1.9582   -4.6640   -0.6154 H   0  0  0  0  0  0  0  0  0  0  0  0
   -2.6548   -3.2774    0.2581 H   0  0  0  0  0  0  0  0  0  0  0  0
   -1.2582   -4.4016    1.8449 H   0  0  0  0  0  0  0  0  0  0  0  0
   -0.3863   -2.9057    1.3843 H   0  0  0  0  0  0  0  0  0  0  0  0
    1.0060   -4.2568   -0.2553 H   0  0  0  0  0  0  0  0  0  0  0  0
    0.9554   -6.6242   -0.0719 H   0  0  0  0  0  0  0  0  0  0  0  0
   -0.3061   -6.5891    1.0482 H   0  0  0  0  0  0  0  0  0  0  0  0
   -2.8657    1.3103   -0.7030 H   0  0  0  0  0  0  0  0  0  0  0  0
   -4.4159    1.3057    0.9033 H   0  0  0  0  0  0  0  0  0  0  0  0
   -1.9852    2.8148    0.8548 H   0  0  0  0  0  0  0  0  0  0  0  0
   -1.5040    2.2636    2.9454 H   0  0  0  0  0  0  0  0  0  0  0  0
  1  2  1  0
  2  3  2  0
  3  4  1  0
  4  5  2  0
  5  6  1  0
  6  7  2  0
  7  8  1  0
  8  9  2  0
  9 10  1  0
 10 11  1  0
 11 12  1  0
 12 13  1  0
 13 14  1  0
 14 15  1  0
 15 16  1  0
 16 17  1  0
 17 18  1  0
 18 19  1  0
 18 20  1  0
 20 21  2  0
 20 22  1  0
 13 23  1  0
 23 24  1  0
 23 25  1  0
 25 26  1  0
  7  2  1  0
 25 11  1  0
 10  6  1  0
  1 27  1  0
  1 28  1  0
  3 29  1  0
  4 30  1  0
  5 31  1  0
  9 32  1  0
 11 33  1  1
 13 34  1  1
 14 35  1  0
 14 36  1  0
 16 37  1  0
 16 38  1  0
 17 39  1  0
 17 40  1  0
 18 41  1  6
 19 42  1  0
 19 43  1  0
 23 44  1  6
 24 45  1  0
 25 46  1  1
 26 47  1  0
M  CHG  3   3   1   5   1  22  -1
M  END
>  <UniqueID>  (14) 
13

>  <SMILES>  (14) 
Nc1[nH+]c[nH+]c2c1ncn2[C@@H]1O[C@H](CSCC[C@H](N)C(=O)[O-])[C@@H](O)[C@H]1O

>  <Energy>  (14) 
80.89151635343491

>  <Genealogy>  (14) 
Nc1[nH+]c[nH+]c2c1ncn2[C@@H]1O[C@H](CSCC[C@H](N)C(=O)[O-])[C@@H](O)[C@H]1O (protonated)
Nc1[nH+]c[nH+]c2c1ncn2[C@@H]1O[C@H](CSCC[C@H](N)C(=O)[O-])[C@@H](O)[C@H]1O (3D coordinates assigned)
Nc1[nH+]c[nH+]c2c1ncn2[C@@H]1O[C@H](CSCC[C@H](N)C(=O)[O-])[C@@H](O)[C@H]1O (nonaromatic ring conformer: 80.89151635343491 kcal/mol)

$$$$
sah
     RDKit          3D

 47 49  0  0  0  0  0  0  0  0999 V2000
    2.1249    6.5914   -1.4860 N   0  0  0  0  0  0  0  0  0  0  0  0
    1.0812    5.9986   -0.7095 C   0  0  0  0  0  0  0  0  0  0  0  0
    0.1865    6.7768   -0.0252 N   0  0  0  0  0  4  0  0  0  0  0  0
   -0.8210    6.2151    0.7196 C   0  0  0  0  0  0  0  0  0  0  0  0
   -0.9544    4.8566    0.7966 N   0  0  0  0  0  4  0  0  0  0  0  0
   -0.0643    4.0874    0.1192 C   0  0  0  0  0  0  0  0  0  0  0  0
    0.9347    4.6179   -0.6238 C   0  0  0  0  0  0  0  0  0  0  0  0
    1.6570    3.6457   -1.2119 N   0  0  0  0  0  0  0  0  0  0  0  0
    1.0413    2.5118   -0.7802 C   0  0  0  0  0  0  0  0  0  0  0  0
   -0.0106    2.7489    0.0485 N   0  0  0  0  0  0  0  0  0  0  0  0
   -0.9461    1.7651    0.5994 C   0  0  2  0  0  0  0  0  0  0  0  0
   -0.2600    0.5742    0.9220 O   0  0  0  0  0  0  0  0  0  0  0  0
   -1.0261   -0.5201    0.4579 C   0  0  2  0  0  0  0  0  0  0  0  0
   -0.2240   -1.2909   -0.6028 C   0  0  0  0  0  0  0  0  0  0  0  0
    1.3885   -1.8448    0.0660 S   0  0  0  0  0  0  0  0  0  0  0  0
    0.8075   -3.4316    0.7669 C   0  0  0  0  0  0  0  0  0  0  0  0
    0.9288   -4.5488   -0.2791 C   0  0  0  0  0  0  0  0  0  0  0  0
    0.4471   -5.9226    0.2309 C   0  0  2  0  0  0  0  0  0  0  0  0
   -0.9571   -5.8631    0.6436 N   0  0  0  0  0  0  0  0  0  0  0  0
    1.3086   -6.4127    1.3646 C   0  0  0  0  0  0  0  0  0  0  0  0
    2.3923   -7.0089    1.1207 O   0  0  0  0  0  0  0  0  0  0  0  0
    0.9479   -6.1619    2.6838 O   0  0  0  0  0  1  0  0  0  0  0  0
   -2.3530    0.0002   -0.1110 C   0  0  1  0  0  0  0  0  0  0  0  0
   -3.3990   -0.1409    0.8241 O   0  0  0  0  0  0  0  0  0  0  0  0
   -2.0455    1.4472   -0.4069 C   0  0  1  0  0  0  0  0  0  0  0  0
   -3.1712    2.2673   -0.2265 O   0  0  0  0  0  0  0  0  0  0  0  0
    2.8118    5.9991   -2.0035 H   0  0  0  0  0  0  0  0  0  0  0  0
    2.2136    7.6301   -1.5474 H   0  0  0  0  0  0  0  0  0  0  0  0
    0.2660    7.8177   -0.0650 H   0  0  0  0  0  0  0  0  0  0  0  0
   -1.5154    6.8532    1.2520 H   0  0  0  0  0  0  0  0  0  0  0  0
   -1.7265    4.4378    1.3611 H   0  0  0  0  0  0  0  0  0  0  0  0
    1.3547    1.5216   -1.0821 H   0  0  0  0  0  0  0  0  0  0  0  0
   -1.3922    2.1573    1.5401 H   0  0  0  0  0  0  0  0  0  0  0  0
   -1.2266   -1.2024    1.3120 H   0  0  0  0  0  0  0  0  0  0  0  0
   -0.8104   -2.1582   -0.9737 H   0  0  0  0  0  0  0  0  0  0  0  0
   -0.0226   -0.6259   -1.4693 H   0  0  0  0  0  0  0  0  0  0  0  0
   -0.2378   -3.3444    1.1296 H   0  0  0  0  0  0  0  0  0  0  0  0
    1.4542   -3.6646    1.6393 H   0  0  0  0  0  0  0  0  0  0  0  0
    0.3342   -4.2755   -1.1770 H   0  0  0  0  0  0  0  0  0  0  0  0
    1.9896   -4.6315   -0.6024 H   0  0  0  0  0  0  0  0  0  0  0  0
    0.5403   -6.6481   -0.6105 H   0  0  0  0  0  0  0  0  0  0  0  0
   -1.5324   -5.5823   -0.1841 H   0  0  0  0  0  0  0  0  0  0  0  0
   -1.2657   -6.8309    0.8932 H   0  0  0  0  0  0  0  0  0  0  0  0
   -2.6503   -0.5285   -1.0440 H   0  0  0  0  0  0  0  0  0  0  0  0
   -3.1345    0.3240    1.6619 H   0  0  0  0  0  0  0  0  0  0  0  0
   -1.6617    1.5281   -1.4524 H   0  0  0  0  0  0  0  0  0  0  0  0
   -2.9531    3.1393   -0.6485 H   0  0  0  0  0  0  0  0  0  0  0  0
  1  2  1  0
  2  3  2  0
  3  4  1  0
  4  5  2  0
  5  6  1  0
  6  7  2  0
  7  8  1  0
  8  9  2  0
  9 10  1  0
 10 11  1  0
 11 12  1  0
 12 13  1  0
 13 14  1  0
 14 15  1  0
 15 16  1  0
 16 17  1  0
 17 18  1  0
 18 19  1  0
 18 20  1  0
 20 21  2  0
 20 22  1  0
 13 23  1  0
 23 24  1  0
 23 25  1  0
 25 26  1  0
  7  2  1  0
 25 11  1  0
 10  6  1  0
  1 27  1  0
  1 28  1  0
  3 29  1  0
  4 30  1  0
  5 31  1  0
  9 32  1  0
 11 33  1  1
 13 34  1  1
 14 35  1  0
 14 36  1  0
 16 37  1  0
 16 38  1  0
 17 39  1  0
 17 40  1  0
 18 41  1  6
 19 42  1  0
 19 43  1  0
 23 44  1  6
 24 45  1  0
 25 46  1  6
 26 47  1  0
M  CHG  3   3   1   5   1  22  -1
M  END
>  <UniqueID>  (15) 
14

>  <SMILES>  (15) 
Nc1[nH+]c[nH+]c2c1ncn2[C@@H]1O[C@H](CSCC[C@H](N)C(=O)[O-])[C@@H](O)[C@H]1O

>  <Energy>  (15) 
81.5839597522611

>  <Genealogy>  (15) 
Nc1[nH+]c[nH+]c2c1ncn2[C@@H]1O[C@H](CSCC[C@H](N)C(=O)[O-])[C@@H](O)[C@H]1O (protonated)
Nc1[nH+]c[nH+]c2c1ncn2[C@@H]1O[C@H](CSCC[C@H](N)C(=O)[O-])[C@@H](O)[C@H]1O (3D coordinates assigned)
Nc1[nH+]c[nH+]c2c1ncn2[C@@H]1O[C@H](CSCC[C@H](N)C(=O)[O-])[C@@H](O)[C@H]1O (nonaromatic ring conformer: 81.5839597522611 kcal/mol)

$$$$
sah
     RDKit          3D

 47 49  0  0  0  0  0  0  0  0999 V2000
   -6.3036   -1.2526   -0.7410 N   0  0  0  0  0  0  0  0  0  0  0  0
   -5.1545   -1.2108   -1.5892 C   0  0  0  0  0  0  0  0  0  0  0  0
   -5.2597   -0.7550   -2.8727 N   0  0  0  0  0  0  0  0  0  0  0  0
   -4.1722   -0.7029   -3.7074 C   0  0  0  0  0  0  0  0  0  0  0  0
   -2.9416   -1.1095   -3.2697 N   0  0  0  0  0  4  0  0  0  0  0  0
   -2.8367   -1.5787   -1.9996 C   0  0  0  0  0  0  0  0  0  0  0  0
   -3.8993   -1.6306   -1.1577 C   0  0  0  0  0  0  0  0  0  0  0  0
   -3.4943   -2.0572    0.0515 N   0  0  0  0  0  4  0  0  0  0  0  0
   -2.1587   -2.2491   -0.0934 C   0  0  0  0  0  0  0  0  0  0  0  0
   -1.7250   -1.9763   -1.3535 N   0  0  0  0  0  0  0  0  0  0  0  0
   -0.3398   -1.9432   -1.8307 C   0  0  2  0  0  0  0  0  0  0  0  0
    0.4338   -2.9057   -1.1468 O   0  0  0  0  0  0  0  0  0  0  0  0
    1.6350   -2.2902   -0.7288 C   0  0  2  0  0  0  0  0  0  0  0  0
    1.6599   -2.2442    0.8053 C   0  0  0  0  0  0  0  0  0  0  0  0
    3.3118   -1.7349    1.4138 S   0  0  0  0  0  0  0  0  0  0  0  0
    2.7251   -0.9517    2.9589 C   0  0  0  0  0  0  0  0  0  0  0  0
    2.3069    0.5008    2.6958 C   0  0  0  0  0  0  0  0  0  0  0  0
    1.8049    1.1946    3.9743 C   0  0  2  0  0  0  0  0  0  0  0  0
    0.6035    0.5278    4.4831 N   0  0  0  0  0  0  0  0  0  0  0  0
    1.5264    2.6493    3.7025 C   0  0  0  0  0  0  0  0  0  0  0  0
    2.1522    3.5423    4.3338 O   0  0  0  0  0  0  0  0  0  0  0  0
    0.5761    3.0168    2.7563 O   0  0  0  0  0  1  0  0  0  0  0  0
    1.7180   -0.8901   -1.3474 C   0  0  1  0  0  0  0  0  0  0  0  0
    2.4353   -0.9389   -2.5547 O   0  0  0  0  0  0  0  0  0  0  0  0
    0.2707   -0.5678   -1.6082 C   0  0  1  0  0  0  0  0  0  0  0  0
    0.0994    0.2509   -2.7363 O   0  0  0  0  0  0  0  0  0  0  0  0
   -6.2528   -1.6388    0.2282 H   0  0  0  0  0  0  0  0  0  0  0  0
   -7.2231   -0.9078   -1.0945 H   0  0  0  0  0  0  0  0  0  0  0  0
   -4.2901   -0.3274   -4.7155 H   0  0  0  0  0  0  0  0  0  0  0  0
   -2.1143   -1.0532   -3.9040 H   0  0  0  0  0  0  0  0  0  0  0  0
   -4.0556   -2.1619    0.9243 H   0  0  0  0  0  0  0  0  0  0  0  0
   -1.5099   -2.5496    0.7174 H   0  0  0  0  0  0  0  0  0  0  0  0
   -0.3132   -2.2017   -2.9124 H   0  0  0  0  0  0  0  0  0  0  0  0
    2.4884   -2.9146   -1.0733 H   0  0  0  0  0  0  0  0  0  0  0  0
    0.8613   -1.5618    1.1649 H   0  0  0  0  0  0  0  0  0  0  0  0
    1.4445   -3.2573    1.2094 H   0  0  0  0  0  0  0  0  0  0  0  0
    1.8864   -1.5393    3.3908 H   0  0  0  0  0  0  0  0  0  0  0  0
    3.5628   -0.9642    3.6891 H   0  0  0  0  0  0  0  0  0  0  0  0
    3.1875    1.0549    2.3018 H   0  0  0  0  0  0  0  0  0  0  0  0
    1.5124    0.5329    1.9201 H   0  0  0  0  0  0  0  0  0  0  0  0
    2.6032    1.1237    4.7483 H   0  0  0  0  0  0  0  0  0  0  0  0
   -0.1775    0.6378    3.7952 H   0  0  0  0  0  0  0  0  0  0  0  0
    0.3096    0.9987    5.3692 H   0  0  0  0  0  0  0  0  0  0  0  0
    2.1628   -0.1276   -0.6658 H   0  0  0  0  0  0  0  0  0  0  0  0
    3.3977   -0.9231   -2.3108 H   0  0  0  0  0  0  0  0  0  0  0  0
   -0.1766   -0.0868   -0.7057 H   0  0  0  0  0  0  0  0  0  0  0  0
    0.4049    1.1583   -2.4730 H   0  0  0  0  0  0  0  0  0  0  0  0
  1  2  1  0
  2  3  2  0
  3  4  1  0
  4  5  2  0
  5  6  1  0
  6  7  2  0
  7  8  1  0
  8  9  2  0
  9 10  1  0
 10 11  1  0
 11 12  1  0
 12 13  1  0
 13 14  1  0
 14 15  1  0
 15 16  1  0
 16 17  1  0
 17 18  1  0
 18 19  1  0
 18 20  1  0
 20 21  2  0
 20 22  1  0
 13 23  1  0
 23 24  1  0
 23 25  1  0
 25 26  1  0
  7  2  1  0
 25 11  1  0
 10  6  1  0
  1 27  1  0
  1 28  1  0
  4 29  1  0
  5 30  1  0
  8 31  1  0
  9 32  1  0
 11 33  1  6
 13 34  1  6
 14 35  1  0
 14 36  1  0
 16 37  1  0
 16 38  1  0
 17 39  1  0
 17 40  1  0
 18 41  1  1
 19 42  1  0
 19 43  1  0
 23 44  1  1
 24 45  1  0
 25 46  1  1
 26 47  1  0
M  CHG  3   5   1   8   1  22  -1
M  END
>  <UniqueID>  (16) 
15

>  <SMILES>  (16) 
Nc1nc[nH+]c2c1[nH+]cn2[C@@H]1O[C@H](CSCC[C@H](N)C(=O)[O-])[C@@H](O)[C@H]1O

>  <Energy>  (16) 
81.60181275322624

>  <Genealogy>  (16) 
Nc1nc[nH+]c2c1[nH+]cn2[C@@H]1O[C@H](CSCC[C@H](N)C(=O)[O-])[C@@H](O)[C@H]1O (protonated)
Nc1nc[nH+]c2c1[nH+]cn2[C@@H]1O[C@H](CSCC[C@H](N)C(=O)[O-])[C@@H](O)[C@H]1O (3D coordinates assigned)
Nc1nc[nH+]c2c1[nH+]cn2[C@@H]1O[C@H](CSCC[C@H](N)C(=O)[O-])[C@@H](O)[C@H]1O (nonaromatic ring conformer: 81.60181275322624 kcal/mol)

$$$$
