REMARK  Name = ./threeLigTest/pdb/l0c0.pdb
REMARK  11 active torsions:
REMARK  status: ('A' for Active; 'I' for Inactive)
REMARK    1  A    between atoms: O1_2  and  C2_3
REMARK    2  A    between atoms: C5_6  and  C6_7
REMARK    3  A    between atoms: N2_9  and  C7_10
REMARK    4  A    between atoms: C19_23  and  O3_24
REMARK    5  A    between atoms: O3_24  and  C20_25
REMARK    6  A    between atoms: C20_25  and  C21_26
REMARK    7  A    between atoms: C21_26  and  C22_27
REMARK    8  A    between atoms: C22_27  and  C23_28
REMARK    9  A    between atoms: C23_28  and  O4_29
REMARK   10  A    between atoms: O4_29  and  C24_30
REMARK   11  A    between atoms: C27_33  and  C28_34
REMARK                            x       y       z     vdW  Elec       q    Type
REMARK                         _______ _______ _______ _____ _____    ______ ____
ROOT
ATOM      1  C2  UNL     1       0.308   3.445  -2.350  0.00  0.00    +0.172 A 
ATOM      2  C3  UNL     1      -0.781   3.294  -1.477  0.00  0.00    +0.040 A 
ATOM      3  C4  UNL     1      -0.692   2.439  -0.378  0.00  0.00    +0.005 A 
ATOM      4  C5  UNL     1       0.489   1.722  -0.114  0.00  0.00    +0.019 A 
ATOM      5  C18 UNL     1       1.589   1.908  -0.970  0.00  0.00    +0.041 A 
ATOM      6  C19 UNL     1       1.497   2.748  -2.096  0.00  0.00    +0.172 A 
ENDROOT
BRANCH   4   7
ATOM      7  C6  UNL     1       0.525   0.776   1.040  0.00  0.00    +0.086 C 
ATOM      8  N1  UNL     1      -0.516   0.598   1.790  0.00  0.00    -0.171 NA
ATOM      9  N2  UNL     1      -0.241  -0.342   2.781  0.00  0.00    -0.222 N 
ATOM     10  C14 UNL     1       0.973  -0.769   2.661  0.00  0.00    +0.257 C 
ATOM     11  O2  UNL     1       1.539  -1.720   3.508  0.00  0.00    -0.270 OA
ATOM     12  C15 UNL     1       1.672  -0.111   1.506  0.00  0.00    +0.110 C 
ATOM     13  C16 UNL     1       2.876   0.695   2.023  0.00  0.00    +0.015 C 
ATOM     14  C17 UNL     1       2.063  -1.179   0.469  0.00  0.00    +0.015 C 
BRANCH   9  15
ATOM     15  C7  UNL     1      -1.242  -0.763   3.771  0.00  0.00    +0.108 C 
ATOM     16  C8  UNL     1      -0.729  -0.492   5.205  0.00  0.00    +0.024 C 
ATOM     17  C9  UNL     1      -1.833  -0.162   6.226  0.00  0.00    +0.002 C 
ATOM     18  C10 UNL     1      -3.134  -0.978   6.115  0.00  0.00    +0.000 C 
ATOM     19  C11 UNL     1      -2.931  -2.457   5.745  0.00  0.00    +0.000 C 
ATOM     20  C12 UNL     1      -2.908  -2.679   4.225  0.00  0.00    +0.002 C 
ATOM     21  C13 UNL     1      -1.594  -2.253   3.558  0.00  0.00    +0.024 C 
ENDBRANCH   9  15
ENDBRANCH   4   7
BRANCH   1  23
ATOM     22  C1  UNL     1      -0.929   4.941  -3.927  0.00  0.00    +0.253 C 
ATOM     23  O1  UNL     1       0.242   4.258  -3.492  0.00  0.00    -0.468 OA
ENDBRANCH   1  23
BRANCH   6  24
ATOM     24  O3  UNL     1       2.554   2.895  -3.007  0.00  0.00    -0.472 OA
BRANCH  24  25
ATOM     25  C20 UNL     1       3.744   2.108  -3.018  0.00  0.00    +0.206 C 
BRANCH  25  26
ATOM     26  C21 UNL     1       4.474   2.279  -4.356  0.00  0.00    +0.051 C 
BRANCH  26  27
ATOM     27  C22 UNL     1       3.574   2.050  -5.588  0.00  0.00    +0.051 C 
BRANCH  27  28
ATOM     28  C23 UNL     1       3.346   0.570  -5.939  0.00  0.00    +0.206 C 
BRANCH  28  29
ATOM     29  O4  UNL     1       2.731  -0.160  -4.877  0.00  0.00    -0.475 OA
BRANCH  29  30
ATOM     30  C24 UNL     1       1.409  -0.007  -4.427  0.00  0.00    +0.139 A 
ATOM     31  C25 UNL     1       1.033  -0.675  -3.257  0.00  0.00    +0.037 A 
ATOM     32  C26 UNL     1      -0.246  -0.511  -2.722  0.00  0.00    +0.006 A 
ATOM     33  C27 UNL     1      -1.182   0.324  -3.356  0.00  0.00    +0.040 A 
ATOM     34  C29 UNL     1      -0.818   0.960  -4.556  0.00  0.00    +0.006 A 
ATOM     35  C30 UNL     1       0.463   0.793  -5.091  0.00  0.00    +0.037 A 
BRANCH  33  36
ATOM     36  C28 UNL     1      -2.521   0.562  -2.768  0.00  0.00    +0.208 A 
ATOM     37  N3  UNL     1      -3.475   1.324  -3.338  0.00  0.00    -0.106 NA
ATOM     38  N4  UNL     1      -4.487   1.310  -2.482  0.00  0.00    -0.021 NA
ATOM     39  N5  UNL     1      -4.174   0.576  -1.425  0.00  0.00    -0.021 NA
ATOM     40  N6  UNL     1      -2.952   0.100  -1.580  0.00  0.00    -0.106 NA
ENDBRANCH  33  36
ENDBRANCH  29  30
ENDBRANCH  28  29
ENDBRANCH  27  28
ENDBRANCH  26  27
ENDBRANCH  25  26
ENDBRANCH  24  25
ENDBRANCH   6  24
TORSDOF 11
