REMARK  Name = ./threeLigTest/pdb/l0c1.pdb
REMARK  11 active torsions:
REMARK  status: ('A' for Active; 'I' for Inactive)
REMARK    1  A    between atoms: O1_2  and  C2_3
REMARK    2  A    between atoms: C5_6  and  C6_7
REMARK    3  A    between atoms: N2_9  and  C7_10
REMARK    4  A    between atoms: C19_23  and  O3_24
REMARK    5  A    between atoms: O3_24  and  C20_25
REMARK    6  A    between atoms: C20_25  and  C21_26
REMARK    7  A    between atoms: C21_26  and  C22_27
REMARK    8  A    between atoms: C22_27  and  C23_28
REMARK    9  A    between atoms: C23_28  and  O4_29
REMARK   10  A    between atoms: O4_29  and  C24_30
REMARK   11  A    between atoms: C27_33  and  C28_34
REMARK                            x       y       z     vdW  Elec       q    Type
REMARK                         _______ _______ _______ _____ _____    ______ ____
ROOT
ATOM      1  C2  UNL     1       0.044   4.377   1.465  0.00  0.00    +0.172 A 
ATOM      2  C3  UNL     1      -0.975   4.643   0.535  0.00  0.00    +0.040 A 
ATOM      3  C4  UNL     1      -1.645   3.595  -0.099  0.00  0.00    +0.005 A 
ATOM      4  C5  UNL     1      -1.320   2.254   0.178  0.00  0.00    +0.019 A 
ATOM      5  C18 UNL     1      -0.300   1.997   1.113  0.00  0.00    +0.041 A 
ATOM      6  C19 UNL     1       0.385   3.050   1.753  0.00  0.00    +0.172 A 
ENDROOT
BRANCH   4   7
ATOM      7  C6  UNL     1      -2.057   1.158  -0.525  0.00  0.00    +0.084 C 
ATOM      8  N1  UNL     1      -2.937   1.442  -1.440  0.00  0.00    -0.180 NA
ATOM      9  N2  UNL     1      -3.519   0.285  -1.955  0.00  0.00    -0.183 N 
ATOM     10  C14 UNL     1      -2.968  -0.818  -1.270  0.00  0.00    +0.249 C 
ATOM     11  O2  UNL     1      -3.313  -2.015  -1.466  0.00  0.00    -0.273 OA
ATOM     12  C15 UNL     1      -1.934  -0.354  -0.293  0.00  0.00    +0.107 C 
ATOM     13  C16 UNL     1      -0.563  -0.916  -0.712  0.00  0.00    +0.015 C 
ATOM     14  C17 UNL     1      -2.346  -0.776   1.129  0.00  0.00    +0.015 C 
BRANCH   9  15
ATOM     15  C7  UNL     1      -4.617   0.267  -2.924  0.00  0.00    +0.099 C 
ATOM     16  C8  UNL     1      -4.195   1.008  -4.216  0.00  0.00    +0.022 C 
ATOM     17  C9  UNL     1      -4.496   2.518  -4.232  0.00  0.00    +0.002 C 
ATOM     18  C10 UNL     1      -5.912   2.822  -4.747  0.00  0.00    +0.000 C 
ATOM     19  C11 UNL     1      -7.015   2.545  -3.718  0.00  0.00    +0.000 C 
ATOM     20  C12 UNL     1      -7.049   1.089  -3.227  0.00  0.00    +0.002 C 
ATOM     21  C13 UNL     1      -5.906   0.780  -2.247  0.00  0.00    +0.022 C 
ENDBRANCH   9  15
ENDBRANCH   4   7
BRANCH   1  23
ATOM     22  C1  UNL     1       0.505   6.795   1.925  0.00  0.00    +0.253 C 
ATOM     23  O1  UNL     1       0.740   5.404   2.123  0.00  0.00    -0.468 OA
ENDBRANCH   1  23
BRANCH   6  24
ATOM     24  O3  UNL     1       1.412   2.813   2.681  0.00  0.00    -0.472 OA
BRANCH  24  25
ATOM     25  C20 UNL     1       1.863   1.519   3.074  0.00  0.00    +0.206 C 
BRANCH  25  26
ATOM     26  C21 UNL     1       3.015   1.660   4.070  0.00  0.00    +0.051 C 
BRANCH  26  27
ATOM     27  C22 UNL     1       3.420   0.318   4.701  0.00  0.00    +0.051 C 
BRANCH  27  28
ATOM     28  C23 UNL     1       4.043  -0.650   3.693  0.00  0.00    +0.206 C 
BRANCH  28  29
ATOM     29  O4  UNL     1       4.505  -1.811   4.379  0.00  0.00    -0.475 OA
BRANCH  29  30
ATOM     30  C24 UNL     1       5.074  -2.929   3.751  0.00  0.00    +0.139 A 
ATOM     31  C25 UNL     1       5.466  -4.011   4.547  0.00  0.00    +0.037 A 
ATOM     32  C26 UNL     1       6.024  -5.155   3.968  0.00  0.00    +0.006 A 
ATOM     33  C27 UNL     1       6.200  -5.234   2.577  0.00  0.00    +0.040 A 
ATOM     34  C29 UNL     1       5.814  -4.145   1.777  0.00  0.00    +0.006 A 
ATOM     35  C30 UNL     1       5.257  -3.001   2.357  0.00  0.00    +0.037 A 
BRANCH  33  36
ATOM     36  C28 UNL     1       6.780  -6.447   1.963  0.00  0.00    +0.208 A 
ATOM     37  N3  UNL     1       6.985  -6.608   0.640  0.00  0.00    -0.106 NA
ATOM     38  N4  UNL     1       7.508  -7.817   0.520  0.00  0.00    -0.021 NA
ATOM     39  N5  UNL     1       7.614  -8.364   1.719  0.00  0.00    -0.021 NA
ATOM     40  N6  UNL     1       7.168  -7.539   2.651  0.00  0.00    -0.106 NA
ENDBRANCH  33  36
ENDBRANCH  29  30
ENDBRANCH  28  29
ENDBRANCH  27  28
ENDBRANCH  26  27
ENDBRANCH  25  26
ENDBRANCH  24  25
ENDBRANCH   6  24
TORSDOF 11
