REMARK  Name = ./threeLigTest/pdb/l0c3.pdb
REMARK  11 active torsions:
REMARK  status: ('A' for Active; 'I' for Inactive)
REMARK    1  A    between atoms: O1_2  and  C2_3
REMARK    2  A    between atoms: C5_6  and  C6_7
REMARK    3  A    between atoms: N2_9  and  C7_10
REMARK    4  A    between atoms: C19_23  and  O3_24
REMARK    5  A    between atoms: O3_24  and  C20_25
REMARK    6  A    between atoms: C20_25  and  C21_26
REMARK    7  A    between atoms: C21_26  and  C22_27
REMARK    8  A    between atoms: C22_27  and  C23_28
REMARK    9  A    between atoms: C23_28  and  O4_29
REMARK   10  A    between atoms: O4_29  and  C24_30
REMARK   11  A    between atoms: C27_33  and  C28_34
REMARK                            x       y       z     vdW  Elec       q    Type
REMARK                         _______ _______ _______ _____ _____    ______ ____
ROOT
ATOM      1  C2  UNL     1       0.714  -0.236  -3.527  0.00  0.00    +0.172 A 
ATOM      2  C3  UNL     1      -0.559  -0.790  -3.303  0.00  0.00    +0.040 A 
ATOM      3  C4  UNL     1      -1.014  -1.020  -2.004  0.00  0.00    +0.005 A 
ATOM      4  C5  UNL     1      -0.199  -0.730  -0.898  0.00  0.00    +0.019 A 
ATOM      5  C18 UNL     1       1.088  -0.207  -1.130  0.00  0.00    +0.041 A 
ATOM      6  C19 UNL     1       1.537   0.066  -2.434  0.00  0.00    +0.172 A 
ENDROOT
BRANCH   4   7
ATOM      7  C6  UNL     1      -0.668  -0.901   0.507  0.00  0.00    +0.086 C 
ATOM      8  N1  UNL     1       0.160  -0.814   1.498  0.00  0.00    -0.171 NA
ATOM      9  N2  UNL     1      -0.528  -0.807   2.712  0.00  0.00    -0.222 N 
ATOM     10  C14 UNL     1      -1.800  -0.875   2.485  0.00  0.00    +0.257 C 
ATOM     11  O2  UNL     1      -2.763  -0.791   3.490  0.00  0.00    -0.270 OA
ATOM     12  C15 UNL     1      -2.094  -1.010   1.017  0.00  0.00    +0.110 C 
ATOM     13  C16 UNL     1      -2.987   0.150   0.551  0.00  0.00    +0.015 C 
ATOM     14  C17 UNL     1      -2.717  -2.389   0.747  0.00  0.00    +0.015 C 
BRANCH   9  15
ATOM     15  C7  UNL     1       0.105  -0.579   4.027  0.00  0.00    +0.108 C 
ATOM     16  C8  UNL     1       1.625  -0.282   3.878  0.00  0.00    +0.024 C 
ATOM     17  C9  UNL     1       2.158   0.667   4.966  0.00  0.00    +0.002 C 
ATOM     18  C10 UNL     1       2.336   0.015   6.342  0.00  0.00    +0.000 C 
ATOM     19  C11 UNL     1       1.044  -0.593   6.902  0.00  0.00    +0.000 C 
ATOM     20  C12 UNL     1       0.694  -1.926   6.214  0.00  0.00    +0.002 C 
ATOM     21  C13 UNL     1      -0.184  -1.786   4.956  0.00  0.00    +0.024 C 
ENDBRANCH   9  15
ENDBRANCH   4   7
BRANCH   1  23
ATOM     22  C1  UNL     1       0.427  -0.125  -6.006  0.00  0.00    +0.253 C 
ATOM     23  O1  UNL     1       1.186   0.051  -4.816  0.00  0.00    -0.468 OA
ENDBRANCH   1  23
BRANCH   6  24
ATOM     24  O3  UNL     1       2.777   0.673  -2.680  0.00  0.00    -0.472 OA
BRANCH  24  25
ATOM     25  C20 UNL     1       3.614   1.255  -1.682  0.00  0.00    +0.206 C 
BRANCH  25  26
ATOM     26  C21 UNL     1       4.690   2.126  -2.336  0.00  0.00    +0.051 C 
BRANCH  26  27
ATOM     27  C22 UNL     1       4.131   3.166  -3.328  0.00  0.00    +0.051 C 
BRANCH  27  28
ATOM     28  C23 UNL     1       3.490   4.392  -2.653  0.00  0.00    +0.206 C 
BRANCH  28  29
ATOM     29  O4  UNL     1       2.339   4.052  -1.878  0.00  0.00    -0.475 OA
BRANCH  29  30
ATOM     30  C24 UNL     1       1.107   3.617  -2.387  0.00  0.00    +0.139 A 
ATOM     31  C25 UNL     1       0.151   3.156  -1.480  0.00  0.00    +0.037 A 
ATOM     32  C26 UNL     1      -1.072   2.655  -1.930  0.00  0.00    +0.006 A 
ATOM     33  C27 UNL     1      -1.368   2.615  -3.303  0.00  0.00    +0.040 A 
ATOM     34  C29 UNL     1      -0.419   3.110  -4.214  0.00  0.00    +0.006 A 
ATOM     35  C30 UNL     1       0.805   3.613  -3.760  0.00  0.00    +0.037 A 
BRANCH  33  36
ATOM     36  C28 UNL     1      -2.651   2.030  -3.766  0.00  0.00    +0.208 A 
ATOM     37  N3  UNL     1      -3.559   1.457  -2.953  0.00  0.00    -0.106 NA
ATOM     38  N4  UNL     1      -4.541   1.063  -3.752  0.00  0.00    -0.021 NA
ATOM     39  N5  UNL     1      -4.254   1.376  -5.006  0.00  0.00    -0.021 NA
ATOM     40  N6  UNL     1      -3.081   1.978  -5.040  0.00  0.00    -0.106 NA
ENDBRANCH  33  36
ENDBRANCH  29  30
ENDBRANCH  28  29
ENDBRANCH  27  28
ENDBRANCH  26  27
ENDBRANCH  25  26
ENDBRANCH  24  25
ENDBRANCH   6  24
TORSDOF 11
