REMARK  Name = ./threeLigTest/pdb/l0c4.pdb
REMARK  11 active torsions:
REMARK  status: ('A' for Active; 'I' for Inactive)
REMARK    1  A    between atoms: O1_2  and  C2_3
REMARK    2  A    between atoms: C5_6  and  C6_7
REMARK    3  A    between atoms: N2_9  and  C7_10
REMARK    4  A    between atoms: C19_23  and  O3_24
REMARK    5  A    between atoms: O3_24  and  C20_25
REMARK    6  A    between atoms: C20_25  and  C21_26
REMARK    7  A    between atoms: C21_26  and  C22_27
REMARK    8  A    between atoms: C22_27  and  C23_28
REMARK    9  A    between atoms: C23_28  and  O4_29
REMARK   10  A    between atoms: O4_29  and  C24_30
REMARK   11  A    between atoms: C27_33  and  C28_34
REMARK                            x       y       z     vdW  Elec       q    Type
REMARK                         _______ _______ _______ _____ _____    ______ ____
ROOT
ATOM      1  C2  UNL     1       0.999   2.724   3.435  0.00  0.00    +0.172 A 
ATOM      2  C3  UNL     1      -0.331   2.333   3.664  0.00  0.00    +0.040 A 
ATOM      3  C4  UNL     1      -1.090   1.763   2.641  0.00  0.00    +0.005 A 
ATOM      4  C5  UNL     1      -0.544   1.571   1.359  0.00  0.00    +0.019 A 
ATOM      5  C18 UNL     1       0.784   1.988   1.132  0.00  0.00    +0.041 A 
ATOM      6  C19 UNL     1       1.557   2.554   2.163  0.00  0.00    +0.172 A 
ENDROOT
BRANCH   4   7
ATOM      7  C6  UNL     1      -1.311   0.936   0.243  0.00  0.00    +0.084 C 
ATOM      8  N1  UNL     1      -0.749   0.745  -0.916  0.00  0.00    -0.180 NA
ATOM      9  N2  UNL     1      -1.627   0.139  -1.811  0.00  0.00    -0.183 N 
ATOM     10  C14 UNL     1      -2.853  -0.067  -1.138  0.00  0.00    +0.249 C 
ATOM     11  O2  UNL     1      -3.874  -0.585  -1.666  0.00  0.00    -0.273 OA
ATOM     12  C15 UNL     1      -2.759   0.431   0.269  0.00  0.00    +0.107 C 
ATOM     13  C16 UNL     1      -3.780   1.562   0.475  0.00  0.00    +0.015 C 
ATOM     14  C17 UNL     1      -2.966  -0.749   1.237  0.00  0.00    +0.015 C 
BRANCH   9  15
ATOM     15  C7  UNL     1      -1.266  -0.220  -3.186  0.00  0.00    +0.099 C 
ATOM     16  C8  UNL     1      -2.112   0.598  -4.203  0.00  0.00    +0.022 C 
ATOM     17  C9  UNL     1      -3.211  -0.170  -4.957  0.00  0.00    +0.002 C 
ATOM     18  C10 UNL     1      -2.658  -0.998  -6.128  0.00  0.00    +0.000 C 
ATOM     19  C11 UNL     1      -2.078  -2.349  -5.696  0.00  0.00    +0.000 C 
ATOM     20  C12 UNL     1      -0.875  -2.223  -4.753  0.00  0.00    +0.002 C 
ATOM     21  C13 UNL     1      -1.284  -1.755  -3.347  0.00  0.00    +0.022 C 
ENDBRANCH   9  15
ENDBRANCH   4   7
BRANCH   1  23
ATOM     22  C1  UNL     1       1.363   3.518   5.780  0.00  0.00    +0.253 C 
ATOM     23  O1  UNL     1       1.800   3.278   4.446  0.00  0.00    -0.468 OA
ENDBRANCH   1  23
BRANCH   6  24
ATOM     24  O3  UNL     1       2.890   2.946   1.969  0.00  0.00    -0.472 OA
BRANCH  24  25
ATOM     25  C20 UNL     1       3.643   2.712   0.781  0.00  0.00    +0.206 C 
BRANCH  25  26
ATOM     26  C21 UNL     1       5.127   3.001   1.032  0.00  0.00    +0.051 C 
BRANCH  26  27
ATOM     27  C22 UNL     1       5.697   2.296   2.279  0.00  0.00    +0.051 C 
BRANCH  27  28
ATOM     28  C23 UNL     1       5.578   0.769   2.229  0.00  0.00    +0.206 C 
BRANCH  28  29
ATOM     29  O4  UNL     1       4.245   0.374   2.542  0.00  0.00    -0.475 OA
BRANCH  29  30
ATOM     30  C24 UNL     1       3.773  -0.945   2.499  0.00  0.00    +0.139 A 
ATOM     31  C25 UNL     1       4.614  -2.037   2.211  0.00  0.00    +0.037 A 
ATOM     32  C26 UNL     1       4.096  -3.334   2.173  0.00  0.00    +0.006 A 
ATOM     33  C27 UNL     1       2.731  -3.565   2.413  0.00  0.00    +0.040 A 
ATOM     34  C29 UNL     1       1.894  -2.473   2.703  0.00  0.00    +0.006 A 
ATOM     35  C30 UNL     1       2.415  -1.176   2.748  0.00  0.00    +0.037 A 
BRANCH  33  36
ATOM     36  C28 UNL     1       2.186  -4.938   2.361  0.00  0.00    +0.208 A 
ATOM     37  N3  UNL     1       2.921  -6.041   2.106  0.00  0.00    -0.106 NA
ATOM     38  N4  UNL     1       2.060  -7.044   2.151  0.00  0.00    -0.021 NA
ATOM     39  N5  UNL     1       0.857  -6.567   2.419  0.00  0.00    -0.021 NA
ATOM     40  N6  UNL     1       0.891  -5.253   2.560  0.00  0.00    -0.106 NA
ENDBRANCH  33  36
ENDBRANCH  29  30
ENDBRANCH  28  29
ENDBRANCH  27  28
ENDBRANCH  26  27
ENDBRANCH  25  26
ENDBRANCH  24  25
ENDBRANCH   6  24
TORSDOF 11
