REMARK  Name = ./threeLigTest/pdb/l2c1.pdb
REMARK  7 active torsions:
REMARK  status: ('A' for Active; 'I' for Inactive)
REMARK    1  A    between atoms: N4_8  and  C5_9
REMARK    2  A    between atoms: C6_11  and  C7_12
REMARK    3  A    between atoms: C7_12  and  S1_13
REMARK    4  A    between atoms: S1_13  and  C8_14
REMARK    5  A    between atoms: C8_14  and  C9_15
REMARK    6  A    between atoms: C9_15  and  C10_16
REMARK    7  A    between atoms: C10_16  and  C11_17
REMARK                            x       y       z     vdW  Elec       q    Type
REMARK                         _______ _______ _______ _____ _____    ______ ____
ROOT
ATOM      1  C5  UNL     1      -0.852   1.306   2.387  0.00  0.00    +0.241 C 
ATOM      2  O1  UNL     1      -0.330   1.955   1.252  0.00  0.00    -0.332 OA
ATOM      3  C6  UNL     1       0.909   2.530   1.614  0.00  0.00    +0.161 C 
ATOM      4  C12 UNL     1       1.232   2.170   3.071  0.00  0.00    +0.214 C 
ATOM      5  O4  UNL     1       0.946   3.271   3.899  0.00  0.00    -0.218 OA
ATOM      6  C13 UNL     1       0.288   1.023   3.349  0.00  0.00    +0.234 C 
ATOM      7  O5  UNL     1      -0.168   1.008   4.677  0.00  0.00    -0.216 OA
ENDROOT
BRANCH   1  15
ATOM      8  N1  UNL     1      -2.729  -3.906   0.151  0.00  0.00    -0.125 NA
ATOM      9  C1  UNL     1      -1.800  -3.023   0.343  0.00  0.00    +0.206 A 
ATOM     10  C2  UNL     1      -2.049  -1.872   1.079  0.00  0.00    +0.154 A 
ATOM     11  C3  UNL     1      -1.069  -0.957   1.263  0.00  0.00    +0.169 A 
ATOM     12  N2  UNL     1       0.178  -1.118   0.759  0.00  0.00    -0.205 NA
ATOM     13  C4  UNL     1       0.439  -2.248   0.036  0.00  0.00    +0.202 A 
ATOM     14  N3  UNL     1      -0.540  -3.188  -0.172  0.00  0.00    -0.202 NA
ATOM     15  N4  UNL     1      -1.537   0.074   1.989  0.00  0.00    -0.269 N 
ATOM     16  C14 UNL     1      -2.832  -0.260   2.233  0.00  0.00    +0.182 A 
ATOM     17  N6  UNL     1      -3.174  -1.454   1.685  0.00  0.00    -0.219 NA
ENDBRANCH   1  15
BRANCH   3  18
ATOM     18  C7  UNL     1       2.004   2.041   0.653  0.00  0.00    +0.090 C 
BRANCH  18  19
ATOM     19  S1  UNL     1       1.690   2.627  -1.055  0.00  0.00    -0.138 S 
BRANCH  19  20
ATOM     20  C8  UNL     1       0.884   1.102  -1.653  0.00  0.00    +0.060 C 
BRANCH  20  21
ATOM     21  C9  UNL     1       0.470   1.268  -3.117  0.00  0.00    +0.042 C 
BRANCH  21  22
ATOM     22  C10 UNL     1      -0.347   0.069  -3.638  0.00  0.00    +0.195 C 
ATOM     23  N5  UNL     1       0.499  -1.119  -3.778  0.00  0.00    -0.121 NA
BRANCH  22  24
ATOM     24  C11 UNL     1      -0.954   0.418  -4.969  0.00  0.00    +0.382 C 
ATOM     25  O2  UNL     1      -0.228   0.525  -5.993  0.00  0.00    -0.244 OA
ATOM     26  O3  UNL     1      -2.319   0.656  -5.068  0.00  0.00    -0.244 OA
ENDBRANCH  22  24
ENDBRANCH  21  22
ENDBRANCH  20  21
ENDBRANCH  19  20
ENDBRANCH  18  19
ENDBRANCH   3  18
TORSDOF 7
