REMARK  Name = ./threeLigTest/pdb/l2c3.pdb
REMARK  7 active torsions:
REMARK  status: ('A' for Active; 'I' for Inactive)
REMARK    1  A    between atoms: N5_10  and  C6_11
REMARK    2  A    between atoms: C7_13  and  C8_14
REMARK    3  A    between atoms: C8_14  and  S1_15
REMARK    4  A    between atoms: S1_15  and  C9_16
REMARK    5  A    between atoms: C9_16  and  C10_17
REMARK    6  A    between atoms: C10_17  and  C11_18
REMARK    7  A    between atoms: C11_18  and  C12_20
REMARK                            x       y       z     vdW  Elec       q    Type
REMARK                         _______ _______ _______ _____ _____    ______ ____
ROOT
ATOM      1  C6  UNL     1      -0.946   1.765   0.599  0.00  0.00    +0.241 C 
ATOM      2  O1  UNL     1      -0.260   0.574   0.922  0.00  0.00    -0.332 OA
ATOM      3  C7  UNL     1      -1.026  -0.520   0.458  0.00  0.00    +0.161 C 
ATOM      4  C13 UNL     1      -2.353   0.000  -0.111  0.00  0.00    +0.214 C 
ATOM      5  O4  UNL     1      -3.399  -0.141   0.824  0.00  0.00    -0.218 OA
ATOM      6  C14 UNL     1      -2.046   1.447  -0.407  0.00  0.00    +0.234 C 
ATOM      7  O5  UNL     1      -3.171   2.267  -0.227  0.00  0.00    -0.216 OA
ENDROOT
BRANCH   1  17
ATOM      8  N1  UNL     1       2.125   6.591  -1.486  0.00  0.00    -0.105 NA
ATOM      9  C1  UNL     1       1.081   5.999  -0.710  0.00  0.00    +0.192 A 
ATOM     10  N2  UNL     1       0.186   6.777  -0.025  0.00  0.00    -0.204 NA
ATOM     11  C2  UNL     1      -0.821   6.215   0.720  0.00  0.00    +0.202 A 
ATOM     12  N3  UNL     1      -0.954   4.857   0.797  0.00  0.00    -0.205 NA
ATOM     13  C3  UNL     1      -0.064   4.087   0.119  0.00  0.00    +0.169 A 
ATOM     14  C4  UNL     1       0.935   4.618  -0.624  0.00  0.00    +0.152 A 
ATOM     15  N4  UNL     1       1.657   3.646  -1.212  0.00  0.00    -0.219 NA
ATOM     16  C5  UNL     1       1.041   2.512  -0.780  0.00  0.00    +0.182 A 
ATOM     17  N5  UNL     1      -0.011   2.749   0.049  0.00  0.00    -0.269 N 
ENDBRANCH   1  17
BRANCH   3  18
ATOM     18  C8  UNL     1      -0.224  -1.291  -0.603  0.00  0.00    +0.090 C 
BRANCH  18  19
ATOM     19  S1  UNL     1       1.389  -1.845   0.066  0.00  0.00    -0.138 S 
BRANCH  19  20
ATOM     20  C9  UNL     1       0.807  -3.432   0.767  0.00  0.00    +0.060 C 
BRANCH  20  21
ATOM     21  C10 UNL     1       0.929  -4.549  -0.279  0.00  0.00    +0.042 C 
BRANCH  21  22
ATOM     22  C11 UNL     1       0.447  -5.923   0.231  0.00  0.00    +0.195 C 
ATOM     23  N6  UNL     1      -0.957  -5.863   0.644  0.00  0.00    -0.121 NA
BRANCH  22  24
ATOM     24  C12 UNL     1       1.309  -6.413   1.365  0.00  0.00    +0.382 C 
ATOM     25  O2  UNL     1       2.392  -7.009   1.121  0.00  0.00    -0.244 OA
ATOM     26  O3  UNL     1       0.948  -6.162   2.684  0.00  0.00    -0.244 OA
ENDBRANCH  22  24
ENDBRANCH  21  22
ENDBRANCH  20  21
ENDBRANCH  19  20
ENDBRANCH  18  19
ENDBRANCH   3  18
TORSDOF 7
