REMARK  Name = ./data/4wxx_site2_bc02/pdb/l0c2.pdb
REMARK  11 active torsions:
REMARK  status: ('A' for Active; 'I' for Inactive)
REMARK    1  A    between atoms: O1_2  and  C2_3
REMARK    2  A    between atoms: C5_6  and  C6_7
REMARK    3  A    between atoms: N2_9  and  C7_10
REMARK    4  A    between atoms: C19_23  and  O3_24
REMARK    5  A    between atoms: O3_24  and  C20_25
REMARK    6  A    between atoms: C20_25  and  C21_26
REMARK    7  A    between atoms: C21_26  and  C22_27
REMARK    8  A    between atoms: C22_27  and  C23_28
REMARK    9  A    between atoms: C23_28  and  O4_29
REMARK   10  A    between atoms: O4_29  and  C24_30
REMARK   11  A    between atoms: C27_33  and  C28_34
REMARK                            x       y       z     vdW  Elec       q    Type
REMARK                         _______ _______ _______ _____ _____    ______ ____
ROOT
ATOM      1  C2  UNL     1      -1.860  -0.719  -5.362  0.00  0.00    +0.172 A 
ATOM      2  C3  UNL     1      -2.329   0.562  -5.698  0.00  0.00    +0.040 A 
ATOM      3  C4  UNL     1      -2.229   1.616  -4.788  0.00  0.00    +0.005 A 
ATOM      4  C5  UNL     1      -1.668   1.417  -3.515  0.00  0.00    +0.019 A 
ATOM      5  C18 UNL     1      -1.204   0.128  -3.184  0.00  0.00    +0.041 A 
ATOM      6  C19 UNL     1      -1.287  -0.936  -4.102  0.00  0.00    +0.172 A 
ENDROOT
BRANCH   4   7
ATOM      7  C6  UNL     1      -1.545   2.520  -2.515  0.00  0.00    +0.086 C 
ATOM      8  N1  UNL     1      -1.091   2.293  -1.323  0.00  0.00    -0.171 NA
ATOM      9  N2  UNL     1      -1.041   3.479  -0.593  0.00  0.00    -0.222 N 
ATOM     10  C14 UNL     1      -1.447   4.465  -1.325  0.00  0.00    +0.257 C 
ATOM     11  O2  UNL     1      -1.482   5.786  -0.881  0.00  0.00    -0.270 OA
ATOM     12  C15 UNL     1      -1.865   3.998  -2.689  0.00  0.00    +0.110 C 
ATOM     13  C16 UNL     1      -0.993   4.672  -3.761  0.00  0.00    +0.015 C 
ATOM     14  C17 UNL     1      -3.368   4.268  -2.880  0.00  0.00    +0.015 C 
BRANCH   9  15
ATOM     15  C7  UNL     1      -0.544   3.538   0.789  0.00  0.00    +0.108 C 
ATOM     16  C8  UNL     1       0.796   4.307   0.829  0.00  0.00    +0.024 C 
ATOM     17  C9  UNL     1       1.612   4.061   2.104  0.00  0.00    +0.002 C 
ATOM     18  C10 UNL     1       0.872   4.441   3.396  0.00  0.00    +0.000 C 
ATOM     19  C11 UNL     1      -0.194   3.403   3.782  0.00  0.00    +0.000 C 
ATOM     20  C12 UNL     1      -1.583   3.657   3.167  0.00  0.00    +0.002 C 
ATOM     21  C13 UNL     1      -1.602   4.179   1.718  0.00  0.00    +0.024 C 
ENDBRANCH   9  15
ENDBRANCH   4   7
BRANCH   1  23
ATOM     22  C1  UNL     1      -2.490  -1.725  -7.567  0.00  0.00    +0.253 C 
ATOM     23  O1  UNL     1      -1.942  -1.800  -6.254  0.00  0.00    -0.468 OA
ENDBRANCH   1  23
BRANCH   6  24
ATOM     24  O3  UNL     1      -0.814  -2.227  -3.806  0.00  0.00    -0.472 OA
BRANCH  24  25
ATOM     25  C20 UNL     1      -0.074  -2.599  -2.643  0.00  0.00    +0.206 C 
BRANCH  25  26
ATOM     26  C21 UNL     1       1.369  -2.083  -2.732  0.00  0.00    +0.051 C 
BRANCH  26  27
ATOM     27  C22 UNL     1       2.167  -2.347  -1.446  0.00  0.00    +0.051 C 
BRANCH  27  28
ATOM     28  C23 UNL     1       2.568  -3.820  -1.296  0.00  0.00    +0.206 C 
BRANCH  28  29
ATOM     29  O4  UNL     1       3.353  -4.004  -0.118  0.00  0.00    -0.475 OA
BRANCH  29  30
ATOM     30  C24 UNL     1       2.858  -4.026   1.196  0.00  0.00    +0.139 A 
ATOM     31  C25 UNL     1       1.483  -3.976   1.495  0.00  0.00    +0.037 A 
ATOM     32  C26 UNL     1       1.047  -4.006   2.823  0.00  0.00    +0.006 A 
ATOM     33  C27 UNL     1       1.972  -4.090   3.879  0.00  0.00    +0.040 A 
ATOM     34  C29 UNL     1       3.343  -4.139   3.574  0.00  0.00    +0.006 A 
ATOM     35  C30 UNL     1       3.777  -4.108   2.246  0.00  0.00    +0.037 A 
BRANCH  33  36
ATOM     36  C28 UNL     1       1.508  -4.130   5.288  0.00  0.00    +0.208 A 
ATOM     37  N3  UNL     1       2.251  -4.529   6.343  0.00  0.00    -0.106 NA
ATOM     38  N4  UNL     1       1.465  -4.416   7.400  0.00  0.00    -0.021 NA
ATOM     39  N5  UNL     1       0.282  -3.964   7.024  0.00  0.00    -0.021 NA
ATOM     40  N6  UNL     1       0.276  -3.777   5.715  0.00  0.00    -0.106 NA
ENDBRANCH  33  36
ENDBRANCH  29  30
ENDBRANCH  28  29
ENDBRANCH  27  28
ENDBRANCH  26  27
ENDBRANCH  25  26
ENDBRANCH  24  25
ENDBRANCH   6  24
TORSDOF 11
