REMARK  Name = ./data/4wxx_site2_bc02/pdb/l1c2.pdb
REMARK  11 active torsions:
REMARK  status: ('A' for Active; 'I' for Inactive)
REMARK    1  A    between atoms: O1_2  and  C2_3
REMARK    2  A    between atoms: C5_6  and  C6_7
REMARK    3  A    between atoms: N2_9  and  C7_10
REMARK    4  A    between atoms: C22_26  and  O3_27
REMARK    5  A    between atoms: O3_27  and  C23_28
REMARK    6  A    between atoms: C23_28  and  C24_29
REMARK    7  A    between atoms: C24_29  and  C25_30
REMARK    8  A    between atoms: C25_30  and  C26_31
REMARK    9  A    between atoms: C26_31  and  O4_32
REMARK   10  A    between atoms: O4_32  and  C27_33
REMARK   11  A    between atoms: C30_36  and  C31_37
REMARK                            x       y       z     vdW  Elec       q    Type
REMARK                         _______ _______ _______ _____ _____    ______ ____
ROOT
ATOM      1  C2  UNL     1      -1.059  -2.872  -3.397  0.00  0.00    +0.172 A 
ATOM      2  C3  UNL     1       0.060  -3.703  -3.192  0.00  0.00    +0.040 A 
ATOM      3  C4  UNL     1       1.131  -3.268  -2.409  0.00  0.00    +0.005 A 
ATOM      4  C5  UNL     1       1.095  -2.005  -1.804  0.00  0.00    +0.018 A 
ATOM      5  C21 UNL     1      -0.001  -1.160  -2.037  0.00  0.00    +0.041 A 
ATOM      6  C22 UNL     1      -1.090  -1.593  -2.817  0.00  0.00    +0.172 A 
ENDROOT
BRANCH   4   7
ATOM      7  C6  UNL     1       2.195  -1.534  -0.942  0.00  0.00    +0.079 C 
ATOM      8  N1  UNL     1       2.776  -0.413  -1.259  0.00  0.00    -0.172 NA
ATOM      9  N2  UNL     1       3.695   0.256  -0.416  0.00  0.00    -0.222 N 
ATOM     10  C14 UNL     1       4.205  -0.361   0.631  0.00  0.00    +0.253 C 
ATOM     11  O2  UNL     1       5.091   0.287   1.494  0.00  0.00    -0.271 OA
ATOM     12  C15 UNL     1       3.856  -1.806   0.895  0.00  0.00    +0.091 C 
ATOM     13  C16 UNL     1       4.841  -2.724   0.145  0.00  0.00    +0.035 C 
ATOM     14  C17 UNL     1       4.370  -4.150   0.049  0.00  0.00    -0.030 C 
ATOM     15  C18 UNL     1       3.084  -4.500   0.189  0.00  0.00    -0.030 C 
ATOM     16  C19 UNL     1       2.035  -3.547   0.694  0.00  0.00    +0.032 C 
ATOM     17  C20 UNL     1       2.402  -2.066   0.465  0.00  0.00    +0.056 C 
BRANCH   9  18
ATOM     18  C7  UNL     1       3.967   1.674  -0.731  0.00  0.00    +0.108 C 
ATOM     19  C8  UNL     1       5.450   1.895  -1.103  0.00  0.00    +0.024 C 
ATOM     20  C9  UNL     1       5.772   3.341  -1.519  0.00  0.00    +0.002 C 
ATOM     21  C10 UNL     1       5.839   4.291  -0.310  0.00  0.00    +0.000 C 
ATOM     22  C11 UNL     1       4.494   4.938   0.076  0.00  0.00    +0.000 C 
ATOM     23  C12 UNL     1       3.245   4.048  -0.068  0.00  0.00    +0.002 C 
ATOM     24  C13 UNL     1       3.448   2.595   0.400  0.00  0.00    +0.024 C 
ENDBRANCH   9  18
ENDBRANCH   4   7
BRANCH   1  26
ATOM     25  C1  UNL     1      -2.295  -4.572  -4.756  0.00  0.00    +0.253 C 
ATOM     26  O1  UNL     1      -2.164  -3.284  -4.160  0.00  0.00    -0.468 OA
ENDBRANCH   1  26
BRANCH   6  27
ATOM     27  O3  UNL     1      -2.226  -0.791  -3.024  0.00  0.00    -0.472 OA
BRANCH  27  28
ATOM     28  C23 UNL     1      -2.400   0.526  -2.504  0.00  0.00    +0.206 C 
BRANCH  28  29
ATOM     29  C24 UNL     1      -3.858   0.960  -2.653  0.00  0.00    +0.051 C 
BRANCH  29  30
ATOM     30  C25 UNL     1      -4.794   0.035  -1.861  0.00  0.00    +0.051 C 
BRANCH  30  31
ATOM     31  C26 UNL     1      -6.202   0.632  -1.749  0.00  0.00    +0.206 C 
BRANCH  31  32
ATOM     32  O4  UNL     1      -7.034  -0.191  -0.929  0.00  0.00    -0.475 OA
BRANCH  32  33
ATOM     33  C27 UNL     1      -6.934  -0.311   0.469  0.00  0.00    +0.139 A 
ATOM     34  C28 UNL     1      -6.067   0.483   1.247  0.00  0.00    +0.037 A 
ATOM     35  C29 UNL     1      -5.987   0.295   2.630  0.00  0.00    +0.006 A 
ATOM     36  C30 UNL     1      -6.781  -0.674   3.264  0.00  0.00    +0.040 A 
ATOM     37  C32 UNL     1      -7.655  -1.453   2.488  0.00  0.00    +0.006 A 
ATOM     38  C33 UNL     1      -7.729  -1.272   1.105  0.00  0.00    +0.037 A 
BRANCH  36  39
ATOM     39  C31 UNL     1      -6.700  -0.869   4.728  0.00  0.00    +0.208 A 
ATOM     40  N3  UNL     1      -7.662  -1.429   5.491  0.00  0.00    -0.106 NA
ATOM     41  N4  UNL     1      -7.200  -1.401   6.729  0.00  0.00    -0.021 NA
ATOM     42  N5  UNL     1      -5.999  -0.852   6.742  0.00  0.00    -0.021 NA
ATOM     43  N6  UNL     1      -5.659  -0.509   5.511  0.00  0.00    -0.106 NA
ENDBRANCH  36  39
ENDBRANCH  32  33
ENDBRANCH  31  32
ENDBRANCH  30  31
ENDBRANCH  29  30
ENDBRANCH  28  29
ENDBRANCH  27  28
ENDBRANCH   6  27
TORSDOF 11
