MODEL 1
REMARK VINA RESULT:      -9.4      0.000      0.000
REMARK  Name = ./data/4wxx_site2_bc02/pdb/l0c1.pdb
REMARK  11 active torsions:
REMARK  status: ('A' for Active; 'I' for Inactive)
REMARK    1  A    between atoms: O1_2  and  C2_3
REMARK    2  A    between atoms: C5_6  and  C6_7
REMARK    3  A    between atoms: N2_9  and  C7_10
REMARK    4  A    between atoms: C19_23  and  O3_24
REMARK    5  A    between atoms: O3_24  and  C20_25
REMARK    6  A    between atoms: C20_25  and  C21_26
REMARK    7  A    between atoms: C21_26  and  C22_27
REMARK    8  A    between atoms: C22_27  and  C23_28
REMARK    9  A    between atoms: C23_28  and  O4_29
REMARK   10  A    between atoms: O4_29  and  C24_30
REMARK   11  A    between atoms: C27_33  and  C28_34
REMARK                            x       y       z     vdW  Elec       q    Type
REMARK                         _______ _______ _______ _____ _____    ______ ____
ROOT
ATOM      1  C2  UNL     1     -52.920  62.250   7.470  0.00  0.00    +0.172 A 
ATOM      2  C3  UNL     1     -51.837  62.156   8.358  0.00  0.00    +0.040 A 
ATOM      3  C4  UNL     1     -50.856  61.178   8.178  0.00  0.00    +0.005 A 
ATOM      4  C5  UNL     1     -50.937  60.266   7.111  0.00  0.00    +0.019 A 
ATOM      5  C18 UNL     1     -51.996  60.396   6.199  0.00  0.00    +0.041 A 
ATOM      6  C19 UNL     1     -52.997  61.372   6.379  0.00  0.00    +0.172 A 
ENDROOT
BRANCH   4   7
ATOM      7  C6  UNL     1     -49.945  59.160   7.006  0.00  0.00    +0.086 C 
ATOM      8  N1  UNL     1     -50.222  58.067   6.367  0.00  0.00    -0.171 NA
ATOM      9  N2  UNL     1     -49.069  57.295   6.225  0.00  0.00    -0.222 N 
ATOM     10  C14 UNL     1     -48.062  57.897   6.768  0.00  0.00    +0.257 C 
ATOM     11  O2  UNL     1     -46.771  57.375   6.765  0.00  0.00    -0.270 OA
ATOM     12  C15 UNL     1     -48.470  59.200   7.393  0.00  0.00    +0.110 C 
ATOM     13  C16 UNL     1     -48.240  59.127   8.914  0.00  0.00    +0.015 C 
ATOM     14  C17 UNL     1     -47.721  60.373   6.731  0.00  0.00    +0.015 C 
BRANCH   9  15
ATOM     15  C7  UNL     1     -49.017  55.987   5.553  0.00  0.00    +0.108 C 
ATOM     16  C8  UNL     1     -48.891  56.147   4.012  0.00  0.00    +0.024 C 
ATOM     17  C9  UNL     1     -48.120  54.985   3.362  0.00  0.00    +0.002 C 
ATOM     18  C10 UNL     1     -48.931  53.692   3.230  0.00  0.00    +0.000 C 
ATOM     19  C11 UNL     1     -49.433  53.147   4.577  0.00  0.00    +0.000 C 
ATOM     20  C12 UNL     1     -50.628  53.953   5.106  0.00  0.00    +0.002 C 
ATOM     21  C13 UNL     1     -50.232  55.133   6.010  0.00  0.00    +0.024 C 
ENDBRANCH   9  15
ENDBRANCH   4   7
BRANCH   1  23
ATOM     22  C1  UNL     1     -53.872  64.314   8.520  0.00  0.00    +0.253 C 
ATOM     23  O1  UNL     1     -53.943  63.201   7.635  0.00  0.00    -0.468 OA
ENDBRANCH   1  23
BRANCH   6  24
ATOM     24  O3  UNL     1     -54.091  61.501   5.498  0.00  0.00    -0.472 OA
BRANCH  24  25
ATOM     25  C20 UNL     1     -54.164  60.949   4.182  0.00  0.00    +0.206 C 
BRANCH  25  26
ATOM     26  C21 UNL     1     -54.696  61.989   3.185  0.00  0.00    +0.051 C 
BRANCH  26  27
ATOM     27  C22 UNL     1     -53.712  62.181   2.024  0.00  0.00    +0.051 C 
BRANCH  27  28
ATOM     28  C23 UNL     1     -52.954  63.506   2.148  0.00  0.00    +0.206 C 
BRANCH  28  29
ATOM     29  O4  UNL     1     -52.564  63.730   3.503  0.00  0.00    -0.475 OA
BRANCH  29  30
ATOM     30  C24 UNL     1     -51.324  64.242   3.923  0.00  0.00    +0.139 A 
ATOM     31  C25 UNL     1     -50.772  63.973   5.189  0.00  0.00    +0.037 A 
ATOM     32  C26 UNL     1     -49.520  64.492   5.539  0.00  0.00    +0.006 A 
ATOM     33  C27 UNL     1     -48.796  65.297   4.637  0.00  0.00    +0.040 A 
ATOM     34  C29 UNL     1     -49.365  65.573   3.380  0.00  0.00    +0.006 A 
ATOM     35  C30 UNL     1     -50.612  65.047   3.029  0.00  0.00    +0.037 A 
BRANCH  33  36
ATOM     36  C28 UNL     1     -47.453  65.835   5.000  0.00  0.00    +0.208 A 
ATOM     37  N3  UNL     1     -46.689  65.401   6.025  0.00  0.00    -0.106 NA
ATOM     38  N4  UNL     1     -45.593  66.142   5.998  0.00  0.00    -0.021 NA
ATOM     39  N5  UNL     1     -45.665  67.003   4.996  0.00  0.00    -0.021 NA
ATOM     40  N6  UNL     1     -46.812  66.839   4.358  0.00  0.00    -0.106 NA
ENDBRANCH  33  36
ENDBRANCH  29  30
ENDBRANCH  28  29
ENDBRANCH  27  28
ENDBRANCH  26  27
ENDBRANCH  25  26
ENDBRANCH  24  25
ENDBRANCH   6  24
TORSDOF 11
ENDMDL
MODEL 2
REMARK VINA RESULT:      -9.3      2.699      4.750
REMARK  Name = ./data/4wxx_site2_bc02/pdb/l0c1.pdb
REMARK  11 active torsions:
REMARK  status: ('A' for Active; 'I' for Inactive)
REMARK    1  A    between atoms: O1_2  and  C2_3
REMARK    2  A    between atoms: C5_6  and  C6_7
REMARK    3  A    between atoms: N2_9  and  C7_10
REMARK    4  A    between atoms: C19_23  and  O3_24
REMARK    5  A    between atoms: O3_24  and  C20_25
REMARK    6  A    between atoms: C20_25  and  C21_26
REMARK    7  A    between atoms: C21_26  and  C22_27
REMARK    8  A    between atoms: C22_27  and  C23_28
REMARK    9  A    between atoms: C23_28  and  O4_29
REMARK   10  A    between atoms: O4_29  and  C24_30
REMARK   11  A    between atoms: C27_33  and  C28_34
REMARK                            x       y       z     vdW  Elec       q    Type
REMARK                         _______ _______ _______ _____ _____    ______ ____
ROOT
ATOM      1  C2  UNL     1     -51.979  56.057   3.553  0.00  0.00    +0.172 A 
ATOM      2  C3  UNL     1     -50.635  55.652   3.515  0.00  0.00    +0.040 A 
ATOM      3  C4  UNL     1     -49.723  56.133   4.457  0.00  0.00    +0.005 A 
ATOM      4  C5  UNL     1     -50.128  57.036   5.455  0.00  0.00    +0.019 A 
ATOM      5  C18 UNL     1     -51.482  57.400   5.518  0.00  0.00    +0.041 A 
ATOM      6  C19 UNL     1     -52.408  56.929   4.565  0.00  0.00    +0.172 A 
ENDROOT
BRANCH   4   7
ATOM      7  C6  UNL     1     -49.115  57.625   6.375  0.00  0.00    +0.086 C 
ATOM      8  N1  UNL     1     -48.092  56.938   6.777  0.00  0.00    -0.171 NA
ATOM      9  N2  UNL     1     -47.191  57.773   7.439  0.00  0.00    -0.222 N 
ATOM     10  C14 UNL     1     -47.639  58.986   7.453  0.00  0.00    +0.257 C 
ATOM     11  O2  UNL     1     -46.943  60.047   8.030  0.00  0.00    -0.270 OA
ATOM     12  C15 UNL     1     -48.980  59.088   6.788  0.00  0.00    +0.110 C 
ATOM     13  C16 UNL     1     -50.030  59.523   7.827  0.00  0.00    +0.015 C 
ATOM     14  C17 UNL     1     -48.910  60.035   5.575  0.00  0.00    +0.015 C 
BRANCH   9  15
ATOM     15  C7  UNL     1     -45.920  57.327   8.030  0.00  0.00    +0.108 C 
ATOM     16  C8  UNL     1     -45.282  56.177   7.201  0.00  0.00    +0.024 C 
ATOM     17  C9  UNL     1     -43.746  56.182   7.277  0.00  0.00    +0.002 C 
ATOM     18  C10 UNL     1     -43.182  55.637   8.593  0.00  0.00    +0.000 C 
ATOM     19  C11 UNL     1     -43.654  56.421   9.829  0.00  0.00    +0.000 C 
ATOM     20  C12 UNL     1     -45.105  56.077  10.199  0.00  0.00    +0.002 C 
ATOM     21  C13 UNL     1     -46.150  56.984   9.528  0.00  0.00    +0.024 C 
ENDBRANCH   9  15
ENDBRANCH   4   7
BRANCH   1  23
ATOM     22  C1  UNL     1     -53.367  54.274   2.476  0.00  0.00    +0.253 C 
ATOM     23  O1  UNL     1     -52.920  55.619   2.605  0.00  0.00    -0.468 OA
ENDBRANCH   1  23
BRANCH   6  24
ATOM     24  O3  UNL     1     -53.767  57.308   4.583  0.00  0.00    -0.472 OA
BRANCH  24  25
ATOM     25  C20 UNL     1     -54.411  58.032   5.634  0.00  0.00    +0.206 C 
BRANCH  25  26
ATOM     26  C21 UNL     1     -54.590  59.507   5.247  0.00  0.00    +0.051 C 
BRANCH  26  27
ATOM     27  C22 UNL     1     -53.701  60.407   6.115  0.00  0.00    +0.051 C 
BRANCH  27  28
ATOM     28  C23 UNL     1     -52.535  60.984   5.309  0.00  0.00    +0.206 C 
BRANCH  28  29
ATOM     29  O4  UNL     1     -52.414  62.387   5.543  0.00  0.00    -0.475 OA
BRANCH  29  30
ATOM     30  C24 UNL     1     -51.230  63.136   5.438  0.00  0.00    +0.139 A 
ATOM     31  C25 UNL     1     -50.822  63.765   4.247  0.00  0.00    +0.037 A 
ATOM     32  C26 UNL     1     -49.643  64.519   4.213  0.00  0.00    +0.006 A 
ATOM     33  C27 UNL     1     -48.842  64.655   5.363  0.00  0.00    +0.040 A 
ATOM     34  C29 UNL     1     -49.250  64.008   6.544  0.00  0.00    +0.006 A 
ATOM     35  C30 UNL     1     -50.432  63.262   6.579  0.00  0.00    +0.037 A 
BRANCH  33  36
ATOM     36  C28 UNL     1     -47.595  65.474   5.335  0.00  0.00    +0.208 A 
ATOM     37  N3  UNL     1     -47.294  66.405   4.405  0.00  0.00    -0.106 NA
ATOM     38  N4  UNL     1     -46.109  66.884   4.745  0.00  0.00    -0.021 NA
ATOM     39  N5  UNL     1     -45.685  66.282   5.843  0.00  0.00    -0.021 NA
ATOM     40  N6  UNL     1     -46.587  65.396   6.233  0.00  0.00    -0.106 NA
ENDBRANCH  33  36
ENDBRANCH  29  30
ENDBRANCH  28  29
ENDBRANCH  27  28
ENDBRANCH  26  27
ENDBRANCH  25  26
ENDBRANCH  24  25
ENDBRANCH   6  24
TORSDOF 11
ENDMDL
MODEL 3
REMARK VINA RESULT:      -8.8      1.024      1.340
REMARK  Name = ./data/4wxx_site2_bc02/pdb/l0c1.pdb
REMARK  11 active torsions:
REMARK  status: ('A' for Active; 'I' for Inactive)
REMARK    1  A    between atoms: O1_2  and  C2_3
REMARK    2  A    between atoms: C5_6  and  C6_7
REMARK    3  A    between atoms: N2_9  and  C7_10
REMARK    4  A    between atoms: C19_23  and  O3_24
REMARK    5  A    between atoms: O3_24  and  C20_25
REMARK    6  A    between atoms: C20_25  and  C21_26
REMARK    7  A    between atoms: C21_26  and  C22_27
REMARK    8  A    between atoms: C22_27  and  C23_28
REMARK    9  A    between atoms: C23_28  and  O4_29
REMARK   10  A    between atoms: O4_29  and  C24_30
REMARK   11  A    between atoms: C27_33  and  C28_34
REMARK                            x       y       z     vdW  Elec       q    Type
REMARK                         _______ _______ _______ _____ _____    ______ ____
ROOT
ATOM      1  C2  UNL     1     -52.410  63.419   6.971  0.00  0.00    +0.172 A 
ATOM      2  C3  UNL     1     -51.475  63.116   7.974  0.00  0.00    +0.040 A 
ATOM      3  C4  UNL     1     -50.714  61.947   7.903  0.00  0.00    +0.005 A 
ATOM      4  C5  UNL     1     -50.873  61.048   6.835  0.00  0.00    +0.019 A 
ATOM      5  C18 UNL     1     -51.775  61.379   5.811  0.00  0.00    +0.041 A 
ATOM      6  C19 UNL     1     -52.556  62.550   5.878  0.00  0.00    +0.172 A 
ENDROOT
BRANCH   4   7
ATOM      7  C6  UNL     1     -50.137  59.753   6.841  0.00  0.00    +0.086 C 
ATOM      8  N1  UNL     1     -50.573  58.730   6.175  0.00  0.00    -0.171 NA
ATOM      9  N2  UNL     1     -49.604  57.726   6.162  0.00  0.00    -0.222 N 
ATOM     10  C14 UNL     1     -48.556  58.112   6.813  0.00  0.00    +0.257 C 
ATOM     11  O2  UNL     1     -47.414  57.325   6.954  0.00  0.00    -0.270 OA
ATOM     12  C15 UNL     1     -48.739  59.486   7.389  0.00  0.00    +0.110 C 
ATOM     13  C16 UNL     1     -48.696  59.403   8.926  0.00  0.00    +0.015 C 
ATOM     14  C17 UNL     1     -47.688  60.456   6.813  0.00  0.00    +0.015 C 
BRANCH   9  15
ATOM     15  C7  UNL     1     -49.762  56.421   5.501  0.00  0.00    +0.108 C 
ATOM     16  C8  UNL     1     -49.011  56.381   4.140  0.00  0.00    +0.024 C 
ATOM     17  C9  UNL     1     -48.511  54.970   3.787  0.00  0.00    +0.002 C 
ATOM     18  C10 UNL     1     -49.608  54.025   3.286  0.00  0.00    +0.000 C 
ATOM     19  C11 UNL     1     -50.742  53.814   4.302  0.00  0.00    +0.000 C 
ATOM     20  C12 UNL     1     -51.683  55.026   4.362  0.00  0.00    +0.002 C 
ATOM     21  C13 UNL     1     -51.275  56.081   5.405  0.00  0.00    +0.024 C 
ENDBRANCH   9  15
ENDBRANCH   4   7
BRANCH   1  23
ATOM     22  C1  UNL     1     -54.475  64.643   7.682  0.00  0.00    +0.253 C 
ATOM     23  O1  UNL     1     -53.216  64.570   7.022  0.00  0.00    -0.468 OA
ENDBRANCH   1  23
BRANCH   6  24
ATOM     24  O3  UNL     1     -53.495  62.889   4.882  0.00  0.00    -0.472 OA
BRANCH  24  25
ATOM     25  C20 UNL     1     -54.364  61.970   4.216  0.00  0.00    +0.206 C 
BRANCH  25  26
ATOM     26  C21 UNL     1     -54.208  62.081   2.693  0.00  0.00    +0.051 C 
BRANCH  26  27
ATOM     27  C22 UNL     1     -54.120  63.551   2.262  0.00  0.00    +0.051 C 
BRANCH  27  28
ATOM     28  C23 UNL     1     -52.863  63.814   1.427  0.00  0.00    +0.206 C 
BRANCH  28  29
ATOM     29  O4  UNL     1     -52.342  65.112   1.709  0.00  0.00    -0.475 OA
BRANCH  29  30
ATOM     30  C24 UNL     1     -51.129  65.383   2.365  0.00  0.00    +0.139 A 
ATOM     31  C25 UNL     1     -50.329  66.502   2.070  0.00  0.00    +0.037 A 
ATOM     32  C26 UNL     1     -49.143  66.730   2.777  0.00  0.00    +0.006 A 
ATOM     33  C27 UNL     1     -48.726  65.843   3.789  0.00  0.00    +0.040 A 
ATOM     34  C29 UNL     1     -49.525  64.719   4.065  0.00  0.00    +0.006 A 
ATOM     35  C30 UNL     1     -50.713  64.496   3.363  0.00  0.00    +0.037 A 
BRANCH  33  36
ATOM     36  C28 UNL     1     -47.472  66.094   4.558  0.00  0.00    +0.208 A 
ATOM     37  N3  UNL     1     -47.076  65.406   5.649  0.00  0.00    -0.106 NA
ATOM     38  N4  UNL     1     -45.926  65.947   6.020  0.00  0.00    -0.021 NA
ATOM     39  N5  UNL     1     -45.613  66.932   5.194  0.00  0.00    -0.021 NA
ATOM     40  N6  UNL     1     -46.557  67.049   4.275  0.00  0.00    -0.106 NA
ENDBRANCH  33  36
ENDBRANCH  29  30
ENDBRANCH  28  29
ENDBRANCH  27  28
ENDBRANCH  26  27
ENDBRANCH  25  26
ENDBRANCH  24  25
ENDBRANCH   6  24
TORSDOF 11
ENDMDL
MODEL 4
REMARK VINA RESULT:      -8.4      2.572      9.225
REMARK  Name = ./data/4wxx_site2_bc02/pdb/l0c1.pdb
REMARK  11 active torsions:
REMARK  status: ('A' for Active; 'I' for Inactive)
REMARK    1  A    between atoms: O1_2  and  C2_3
REMARK    2  A    between atoms: C5_6  and  C6_7
REMARK    3  A    between atoms: N2_9  and  C7_10
REMARK    4  A    between atoms: C19_23  and  O3_24
REMARK    5  A    between atoms: O3_24  and  C20_25
REMARK    6  A    between atoms: C20_25  and  C21_26
REMARK    7  A    between atoms: C21_26  and  C22_27
REMARK    8  A    between atoms: C22_27  and  C23_28
REMARK    9  A    between atoms: C23_28  and  O4_29
REMARK   10  A    between atoms: O4_29  and  C24_30
REMARK   11  A    between atoms: C27_33  and  C28_34
REMARK                            x       y       z     vdW  Elec       q    Type
REMARK                         _______ _______ _______ _____ _____    ______ ____
ROOT
ATOM      1  C2  UNL     1     -48.627  59.044  10.370  0.00  0.00    +0.172 A 
ATOM      2  C3  UNL     1     -49.454  60.112  10.755  0.00  0.00    +0.040 A 
ATOM      3  C4  UNL     1     -49.897  61.041   9.810  0.00  0.00    +0.005 A 
ATOM      4  C5  UNL     1     -49.518  60.932   8.461  0.00  0.00    +0.019 A 
ATOM      5  C18 UNL     1     -48.731  59.836   8.074  0.00  0.00    +0.041 A 
ATOM      6  C19 UNL     1     -48.270  58.899   9.021  0.00  0.00    +0.172 A 
ENDROOT
BRANCH   4   7
ATOM      7  C6  UNL     1     -49.904  61.998   7.495  0.00  0.00    +0.086 C 
ATOM      8  N1  UNL     1     -49.066  62.922   7.144  0.00  0.00    -0.171 NA
ATOM      9  N2  UNL     1     -49.588  63.656   6.079  0.00  0.00    -0.222 N 
ATOM     10  C14 UNL     1     -50.752  63.197   5.752  0.00  0.00    +0.257 C 
ATOM     11  O2  UNL     1     -51.510  63.719   4.706  0.00  0.00    -0.270 OA
ATOM     12  C15 UNL     1     -51.165  62.058   6.638  0.00  0.00    +0.110 C 
ATOM     13  C16 UNL     1     -52.419  62.464   7.434  0.00  0.00    +0.015 C 
ATOM     14  C17 UNL     1     -51.371  60.776   5.809  0.00  0.00    +0.015 C 
BRANCH   9  15
ATOM     15  C7  UNL     1     -48.906  64.786   5.429  0.00  0.00    +0.108 C 
ATOM     16  C8  UNL     1     -48.845  64.600   3.887  0.00  0.00    +0.024 C 
ATOM     17  C9  UNL     1     -48.859  65.940   3.132  0.00  0.00    +0.002 C 
ATOM     18  C10 UNL     1     -47.522  66.688   3.162  0.00  0.00    +0.000 C 
ATOM     19  C11 UNL     1     -47.044  67.024   4.585  0.00  0.00    +0.000 C 
ATOM     20  C12 UNL     1     -46.475  65.790   5.299  0.00  0.00    +0.002 C 
ATOM     21  C13 UNL     1     -47.522  64.998   6.102  0.00  0.00    +0.024 C 
ENDBRANCH   9  15
ENDBRANCH   4   7
BRANCH   1  23
ATOM     22  C1  UNL     1     -48.166  58.278  12.708  0.00  0.00    +0.253 C 
ATOM     23  O1  UNL     1     -48.137  58.106  11.295  0.00  0.00    -0.468 OA
ENDBRANCH   1  23
BRANCH   6  24
ATOM     24  O3  UNL     1     -47.449  57.809   8.665  0.00  0.00    -0.472 OA
BRANCH  24  25
ATOM     25  C20 UNL     1     -46.023  57.842   8.573  0.00  0.00    +0.206 C 
BRANCH  25  26
ATOM     26  C21 UNL     1     -45.415  56.524   9.072  0.00  0.00    +0.051 C 
BRANCH  26  27
ATOM     27  C22 UNL     1     -45.166  55.563   7.902  0.00  0.00    +0.051 C 
BRANCH  27  28
ATOM     28  C23 UNL     1     -45.550  56.202   6.565  0.00  0.00    +0.206 C 
BRANCH  28  29
ATOM     29  O4  UNL     1     -46.418  55.337   5.832  0.00  0.00    -0.475 OA
BRANCH  29  30
ATOM     30  C24 UNL     1     -47.789  55.550   5.612  0.00  0.00    +0.139 A 
ATOM     31  C25 UNL     1     -48.433  56.769   5.891  0.00  0.00    +0.037 A 
ATOM     32  C26 UNL     1     -49.798  56.927   5.625  0.00  0.00    +0.006 A 
ATOM     33  C27 UNL     1     -50.552  55.869   5.082  0.00  0.00    +0.040 A 
ATOM     34  C29 UNL     1     -49.903  54.648   4.820  0.00  0.00    +0.006 A 
ATOM     35  C30 UNL     1     -48.537  54.494   5.080  0.00  0.00    +0.037 A 
BRANCH  33  36
ATOM     36  C28 UNL     1     -52.003  56.039   4.779  0.00  0.00    +0.208 A 
ATOM     37  N3  UNL     1     -52.796  55.106   4.210  0.00  0.00    -0.106 NA
ATOM     38  N4  UNL     1     -53.994  55.660   4.116  0.00  0.00    -0.021 NA
ATOM     39  N5  UNL     1     -53.955  56.887   4.607  0.00  0.00    -0.021 NA
ATOM     40  N6  UNL     1     -52.729  57.153   5.025  0.00  0.00    -0.106 NA
ENDBRANCH  33  36
ENDBRANCH  29  30
ENDBRANCH  28  29
ENDBRANCH  27  28
ENDBRANCH  26  27
ENDBRANCH  25  26
ENDBRANCH  24  25
ENDBRANCH   6  24
TORSDOF 11
ENDMDL
MODEL 5
REMARK VINA RESULT:      -8.2      2.797      8.869
REMARK  Name = ./data/4wxx_site2_bc02/pdb/l0c1.pdb
REMARK  11 active torsions:
REMARK  status: ('A' for Active; 'I' for Inactive)
REMARK    1  A    between atoms: O1_2  and  C2_3
REMARK    2  A    between atoms: C5_6  and  C6_7
REMARK    3  A    between atoms: N2_9  and  C7_10
REMARK    4  A    between atoms: C19_23  and  O3_24
REMARK    5  A    between atoms: O3_24  and  C20_25
REMARK    6  A    between atoms: C20_25  and  C21_26
REMARK    7  A    between atoms: C21_26  and  C22_27
REMARK    8  A    between atoms: C22_27  and  C23_28
REMARK    9  A    between atoms: C23_28  and  O4_29
REMARK   10  A    between atoms: O4_29  and  C24_30
REMARK   11  A    between atoms: C27_33  and  C28_34
REMARK                            x       y       z     vdW  Elec       q    Type
REMARK                         _______ _______ _______ _____ _____    ______ ____
ROOT
ATOM      1  C2  UNL     1     -47.635  57.991   9.711  0.00  0.00    +0.172 A 
ATOM      2  C3  UNL     1     -48.532  58.854  10.362  0.00  0.00    +0.040 A 
ATOM      3  C4  UNL     1     -49.051  59.968   9.697  0.00  0.00    +0.005 A 
ATOM      4  C5  UNL     1     -48.680  60.253   8.372  0.00  0.00    +0.019 A 
ATOM      5  C18 UNL     1     -47.820  59.361   7.712  0.00  0.00    +0.041 A 
ATOM      6  C19 UNL     1     -47.283  58.240   8.376  0.00  0.00    +0.172 A 
ENDROOT
BRANCH   4   7
ATOM      7  C6  UNL     1     -49.153  61.508   7.724  0.00  0.00    +0.086 C 
ATOM      8  N1  UNL     1     -48.315  62.396   7.288  0.00  0.00    -0.171 NA
ATOM      9  N2  UNL     1     -48.991  63.357   6.536  0.00  0.00    -0.222 N 
ATOM     10  C14 UNL     1     -50.253  63.078   6.491  0.00  0.00    +0.257 C 
ATOM     11  O2  UNL     1     -51.179  63.851   5.794  0.00  0.00    -0.270 OA
ATOM     12  C15 UNL     1     -50.574  61.843   7.282  0.00  0.00    +0.110 C 
ATOM     13  C16 UNL     1     -51.501  62.217   8.453  0.00  0.00    +0.015 C 
ATOM     14  C17 UNL     1     -51.174  60.758   6.367  0.00  0.00    +0.015 C 
BRANCH   9  15
ATOM     15  C7  UNL     1     -48.352  64.515   5.892  0.00  0.00    +0.108 C 
ATOM     16  C8  UNL     1     -48.471  64.438   4.343  0.00  0.00    +0.024 C 
ATOM     17  C9  UNL     1     -48.528  65.829   3.690  0.00  0.00    +0.002 C 
ATOM     18  C10 UNL     1     -47.175  66.543   3.618  0.00  0.00    +0.000 C 
ATOM     19  C11 UNL     1     -46.529  66.765   4.996  0.00  0.00    +0.000 C 
ATOM     20  C12 UNL     1     -45.922  65.470   5.554  0.00  0.00    +0.002 C 
ATOM     21  C13 UNL     1     -46.895  64.647   6.415  0.00  0.00    +0.024 C 
ENDBRANCH   9  15
ENDBRANCH   4   7
BRANCH   1  23
ATOM     22  C1  UNL     1     -45.831  56.897  11.058  0.00  0.00    +0.253 C 
ATOM     23  O1  UNL     1     -47.068  56.878  10.356  0.00  0.00    -0.468 OA
ENDBRANCH   1  23
BRANCH   6  24
ATOM     24  O3  UNL     1     -46.389  57.348   7.748  0.00  0.00    -0.472 OA
BRANCH  24  25
ATOM     25  C20 UNL     1     -46.369  57.042   6.352  0.00  0.00    +0.206 C 
BRANCH  25  26
ATOM     26  C21 UNL     1     -45.906  55.596   6.119  0.00  0.00    +0.051 C 
BRANCH  26  27
ATOM     27  C22 UNL     1     -47.111  54.658   5.970  0.00  0.00    +0.051 C 
BRANCH  27  28
ATOM     28  C23 UNL     1     -47.813  54.861   4.625  0.00  0.00    +0.206 C 
BRANCH  28  29
ATOM     29  O4  UNL     1     -49.188  54.491   4.722  0.00  0.00    -0.475 OA
BRANCH  29  30
ATOM     30  C24 UNL     1     -50.254  55.365   4.996  0.00  0.00    +0.139 A 
ATOM     31  C25 UNL     1     -51.604  55.016   4.801  0.00  0.00    +0.037 A 
ATOM     32  C26 UNL     1     -52.622  55.923   5.118  0.00  0.00    +0.006 A 
ATOM     33  C27 UNL     1     -52.316  57.199   5.628  0.00  0.00    +0.040 A 
ATOM     34  C29 UNL     1     -50.963  57.544   5.804  0.00  0.00    +0.006 A 
ATOM     35  C30 UNL     1     -49.947  56.635   5.494  0.00  0.00    +0.037 A 
BRANCH  33  36
ATOM     36  C28 UNL     1     -53.399  58.161   5.984  0.00  0.00    +0.208 A 
ATOM     37  N3  UNL     1     -54.023  58.989   5.119  0.00  0.00    -0.106 NA
ATOM     38  N4  UNL     1     -54.902  59.667   5.839  0.00  0.00    -0.021 NA
ATOM     39  N5  UNL     1     -54.835  59.280   7.102  0.00  0.00    -0.021 NA
ATOM     40  N6  UNL     1     -53.906  58.345   7.224  0.00  0.00    -0.106 NA
ENDBRANCH  33  36
ENDBRANCH  29  30
ENDBRANCH  28  29
ENDBRANCH  27  28
ENDBRANCH  26  27
ENDBRANCH  25  26
ENDBRANCH  24  25
ENDBRANCH   6  24
TORSDOF 11
ENDMDL
MODEL 6
REMARK VINA RESULT:      -7.8      3.018      6.782
REMARK  Name = ./data/4wxx_site2_bc02/pdb/l0c1.pdb
REMARK  11 active torsions:
REMARK  status: ('A' for Active; 'I' for Inactive)
REMARK    1  A    between atoms: O1_2  and  C2_3
REMARK    2  A    between atoms: C5_6  and  C6_7
REMARK    3  A    between atoms: N2_9  and  C7_10
REMARK    4  A    between atoms: C19_23  and  O3_24
REMARK    5  A    between atoms: O3_24  and  C20_25
REMARK    6  A    between atoms: C20_25  and  C21_26
REMARK    7  A    between atoms: C21_26  and  C22_27
REMARK    8  A    between atoms: C22_27  and  C23_28
REMARK    9  A    between atoms: C23_28  and  O4_29
REMARK   10  A    between atoms: O4_29  and  C24_30
REMARK   11  A    between atoms: C27_33  and  C28_34
REMARK                            x       y       z     vdW  Elec       q    Type
REMARK                         _______ _______ _______ _____ _____    ______ ____
ROOT
ATOM      1  C2  UNL     1     -49.104  64.361   4.954  0.00  0.00    +0.172 A 
ATOM      2  C3  UNL     1     -47.923  64.041   5.643  0.00  0.00    +0.040 A 
ATOM      3  C4  UNL     1     -47.824  62.849   6.364  0.00  0.00    +0.005 A 
ATOM      4  C5  UNL     1     -48.904  61.951   6.421  0.00  0.00    +0.019 A 
ATOM      5  C18 UNL     1     -50.065  62.253   5.691  0.00  0.00    +0.041 A 
ATOM      6  C19 UNL     1     -50.178  63.459   4.970  0.00  0.00    +0.172 A 
ENDROOT
BRANCH   4   7
ATOM      7  C6  UNL     1     -48.818  60.744   7.290  0.00  0.00    +0.086 C 
ATOM      8  N1  UNL     1     -47.931  59.824   7.076  0.00  0.00    -0.171 NA
ATOM      9  N2  UNL     1     -47.912  58.925   8.143  0.00  0.00    -0.222 N 
ATOM     10  C14 UNL     1     -48.782  59.277   9.034  0.00  0.00    +0.257 C 
ATOM     11  O2  UNL     1     -48.977  58.579  10.224  0.00  0.00    -0.270 OA
ATOM     12  C15 UNL     1     -49.538  60.504   8.614  0.00  0.00    +0.110 C 
ATOM     13  C16 UNL     1     -51.025  60.148   8.439  0.00  0.00    +0.015 C 
ATOM     14  C17 UNL     1     -49.310  61.648   9.621  0.00  0.00    +0.015 C 
BRANCH   9  15
ATOM     15  C7  UNL     1     -47.028  57.753   8.233  0.00  0.00    +0.108 C 
ATOM     16  C8  UNL     1     -46.003  57.903   9.392  0.00  0.00    +0.024 C 
ATOM     17  C9  UNL     1     -45.604  56.550  10.002  0.00  0.00    +0.002 C 
ATOM     18  C10 UNL     1     -44.621  55.743   9.147  0.00  0.00    +0.000 C 
ATOM     19  C11 UNL     1     -45.159  55.417   7.744  0.00  0.00    +0.000 C 
ATOM     20  C12 UNL     1     -45.107  56.640   6.817  0.00  0.00    +0.002 C 
ATOM     21  C13 UNL     1     -46.386  57.494   6.842  0.00  0.00    +0.024 C 
ENDBRANCH   9  15
ENDBRANCH   4   7
BRANCH   1  23
ATOM     22  C1  UNL     1     -48.179  66.433   3.896  0.00  0.00    +0.253 C 
ATOM     23  O1  UNL     1     -49.252  65.565   4.243  0.00  0.00    -0.468 OA
ENDBRANCH   1  23
BRANCH   6  24
ATOM     24  O3  UNL     1     -51.345  63.804   4.258  0.00  0.00    -0.472 OA
BRANCH  24  25
ATOM     25  C20 UNL     1     -52.683  63.516   4.670  0.00  0.00    +0.206 C 
BRANCH  25  26
ATOM     26  C21 UNL     1     -53.153  62.174   4.092  0.00  0.00    +0.051 C 
BRANCH  26  27
ATOM     27  C22 UNL     1     -54.011  61.414   5.113  0.00  0.00    +0.051 C 
BRANCH  27  28
ATOM     28  C23 UNL     1     -53.737  59.908   5.062  0.00  0.00    +0.206 C 
BRANCH  28  29
ATOM     29  O4  UNL     1     -52.365  59.643   5.355  0.00  0.00    -0.475 OA
BRANCH  29  30
ATOM     30  C24 UNL     1     -51.762  58.374   5.370  0.00  0.00    +0.139 A 
ATOM     31  C25 UNL     1     -52.496  57.174   5.329  0.00  0.00    +0.037 A 
ATOM     32  C26 UNL     1     -51.836  55.940   5.321  0.00  0.00    +0.006 A 
ATOM     33  C27 UNL     1     -50.429  55.876   5.362  0.00  0.00    +0.040 A 
ATOM     34  C29 UNL     1     -49.705  57.081   5.419  0.00  0.00    +0.006 A 
ATOM     35  C30 UNL     1     -50.366  58.313   5.420  0.00  0.00    +0.037 A 
BRANCH  33  36
ATOM     36  C28 UNL     1     -49.721  54.563   5.334  0.00  0.00    +0.208 A 
ATOM     37  N3  UNL     1     -50.320  53.354   5.358  0.00  0.00    -0.106 NA
ATOM     38  N4  UNL     1     -49.340  52.465   5.325  0.00  0.00    -0.021 NA
ATOM     39  N5  UNL     1     -48.175  53.090   5.280  0.00  0.00    -0.021 NA
ATOM     40  N6  UNL     1     -48.380  54.397   5.287  0.00  0.00    -0.106 NA
ENDBRANCH  33  36
ENDBRANCH  29  30
ENDBRANCH  28  29
ENDBRANCH  27  28
ENDBRANCH  26  27
ENDBRANCH  25  26
ENDBRANCH  24  25
ENDBRANCH   6  24
TORSDOF 11
ENDMDL
MODEL 7
REMARK VINA RESULT:      -7.7      3.365      9.958
REMARK  Name = ./data/4wxx_site2_bc02/pdb/l0c1.pdb
REMARK  11 active torsions:
REMARK  status: ('A' for Active; 'I' for Inactive)
REMARK    1  A    between atoms: O1_2  and  C2_3
REMARK    2  A    between atoms: C5_6  and  C6_7
REMARK    3  A    between atoms: N2_9  and  C7_10
REMARK    4  A    between atoms: C19_23  and  O3_24
REMARK    5  A    between atoms: O3_24  and  C20_25
REMARK    6  A    between atoms: C20_25  and  C21_26
REMARK    7  A    between atoms: C21_26  and  C22_27
REMARK    8  A    between atoms: C22_27  and  C23_28
REMARK    9  A    between atoms: C23_28  and  O4_29
REMARK   10  A    between atoms: O4_29  and  C24_30
REMARK   11  A    between atoms: C27_33  and  C28_34
REMARK                            x       y       z     vdW  Elec       q    Type
REMARK                         _______ _______ _______ _____ _____    ______ ____
ROOT
ATOM      1  C2  UNL     1     -47.863  58.101   9.999  0.00  0.00    +0.172 A 
ATOM      2  C3  UNL     1     -48.618  59.079  10.667  0.00  0.00    +0.040 A 
ATOM      3  C4  UNL     1     -49.196  60.134   9.957  0.00  0.00    +0.005 A 
ATOM      4  C5  UNL     1     -49.028  60.244   8.566  0.00  0.00    +0.019 A 
ATOM      5  C18 UNL     1     -48.313  59.238   7.897  0.00  0.00    +0.041 A 
ATOM      6  C19 UNL     1     -47.717  58.175   8.605  0.00  0.00    +0.172 A 
ENDROOT
BRANCH   4   7
ATOM      7  C6  UNL     1     -49.554  61.439   7.849  0.00  0.00    +0.086 C 
ATOM      8  N1  UNL     1     -48.754  62.325   7.345  0.00  0.00    -0.171 NA
ATOM      9  N2  UNL     1     -49.474  63.213   6.545  0.00  0.00    -0.222 N 
ATOM     10  C14 UNL     1     -50.726  62.889   6.538  0.00  0.00    +0.257 C 
ATOM     11  O2  UNL     1     -51.688  63.584   5.809  0.00  0.00    -0.270 OA
ATOM     12  C15 UNL     1     -50.992  61.696   7.409  0.00  0.00    +0.110 C 
ATOM     13  C16 UNL     1     -51.915  62.111   8.569  0.00  0.00    +0.015 C 
ATOM     14  C17 UNL     1     -51.566  60.536   6.574  0.00  0.00    +0.015 C 
BRANCH   9  15
ATOM     15  C7  UNL     1     -48.885  64.350   5.820  0.00  0.00    +0.108 C 
ATOM     16  C8  UNL     1     -48.937  64.128   4.282  0.00  0.00    +0.024 C 
ATOM     17  C9  UNL     1     -49.057  65.448   3.502  0.00  0.00    +0.002 C 
ATOM     18  C10 UNL     1     -47.750  66.242   3.412  0.00  0.00    +0.000 C 
ATOM     19  C11 UNL     1     -47.176  66.629   4.784  0.00  0.00    +0.000 C 
ATOM     20  C12 UNL     1     -46.509  65.433   5.479  0.00  0.00    +0.002 C 
ATOM     21  C13 UNL     1     -47.462  64.626   6.378  0.00  0.00    +0.024 C 
ENDBRANCH   9  15
ENDBRANCH   4   7
BRANCH   1  23
ATOM     22  C1  UNL     1     -45.841  56.953  10.927  0.00  0.00    +0.253 C 
ATOM     23  O1  UNL     1     -47.240  57.041  10.681  0.00  0.00    -0.468 OA
ENDBRANCH   1  23
BRANCH   6  24
ATOM     24  O3  UNL     1     -46.963  57.171   7.963  0.00  0.00    -0.472 OA
BRANCH  24  25
ATOM     25  C20 UNL     1     -46.501  57.218   6.611  0.00  0.00    +0.206 C 
BRANCH  25  26
ATOM     26  C21 UNL     1     -46.589  55.831   5.957  0.00  0.00    +0.051 C 
BRANCH  26  27
ATOM     27  C22 UNL     1     -48.037  55.504   5.571  0.00  0.00    +0.051 C 
BRANCH  27  28
ATOM     28  C23 UNL     1     -48.849  56.777   5.319  0.00  0.00    +0.206 C 
BRANCH  28  29
ATOM     29  O4  UNL     1     -50.221  56.564   5.649  0.00  0.00    -0.475 OA
BRANCH  29  30
ATOM     30  C24 UNL     1     -51.044  55.556   5.119  0.00  0.00    +0.139 A 
ATOM     31  C25 UNL     1     -51.475  54.444   5.867  0.00  0.00    +0.037 A 
ATOM     32  C26 UNL     1     -52.316  53.486   5.288  0.00  0.00    +0.006 A 
ATOM     33  C27 UNL     1     -52.738  53.612   3.951  0.00  0.00    +0.040 A 
ATOM     34  C29 UNL     1     -52.289  54.719   3.207  0.00  0.00    +0.006 A 
ATOM     35  C30 UNL     1     -51.455  55.679   3.788  0.00  0.00    +0.037 A 
BRANCH  33  36
ATOM     36  C28 UNL     1     -53.650  52.603   3.337  0.00  0.00    +0.208 A 
ATOM     37  N3  UNL     1     -54.117  52.641   2.071  0.00  0.00    -0.106 NA
ATOM     38  N4  UNL     1     -54.888  51.574   1.938  0.00  0.00    -0.021 NA
ATOM     39  N5  UNL     1     -54.902  50.893   3.073  0.00  0.00    -0.021 NA
ATOM     40  N6  UNL     1     -54.143  51.510   3.963  0.00  0.00    -0.106 NA
ENDBRANCH  33  36
ENDBRANCH  29  30
ENDBRANCH  28  29
ENDBRANCH  27  28
ENDBRANCH  26  27
ENDBRANCH  25  26
ENDBRANCH  24  25
ENDBRANCH   6  24
TORSDOF 11
ENDMDL
MODEL 8
REMARK VINA RESULT:      -7.7      2.918      7.919
REMARK  Name = ./data/4wxx_site2_bc02/pdb/l0c1.pdb
REMARK  11 active torsions:
REMARK  status: ('A' for Active; 'I' for Inactive)
REMARK    1  A    between atoms: O1_2  and  C2_3
REMARK    2  A    between atoms: C5_6  and  C6_7
REMARK    3  A    between atoms: N2_9  and  C7_10
REMARK    4  A    between atoms: C19_23  and  O3_24
REMARK    5  A    between atoms: O3_24  and  C20_25
REMARK    6  A    between atoms: C20_25  and  C21_26
REMARK    7  A    between atoms: C21_26  and  C22_27
REMARK    8  A    between atoms: C22_27  and  C23_28
REMARK    9  A    between atoms: C23_28  and  O4_29
REMARK   10  A    between atoms: O4_29  and  C24_30
REMARK   11  A    between atoms: C27_33  and  C28_34
REMARK                            x       y       z     vdW  Elec       q    Type
REMARK                         _______ _______ _______ _____ _____    ______ ____
ROOT
ATOM      1  C2  UNL     1     -53.468  56.163   4.970  0.00  0.00    +0.172 A 
ATOM      2  C3  UNL     1     -54.541  57.024   5.252  0.00  0.00    +0.040 A 
ATOM      3  C4  UNL     1     -54.339  58.404   5.335  0.00  0.00    +0.005 A 
ATOM      4  C5  UNL     1     -53.060  58.956   5.147  0.00  0.00    +0.019 A 
ATOM      5  C18 UNL     1     -52.001  58.095   4.818  0.00  0.00    +0.041 A 
ATOM      6  C19 UNL     1     -52.193  56.701   4.743  0.00  0.00    +0.172 A 
ENDROOT
BRANCH   4   7
ATOM      7  C6  UNL     1     -52.846  60.415   5.356  0.00  0.00    +0.086 C 
ATOM      8  N1  UNL     1     -51.654  60.910   5.468  0.00  0.00    -0.171 NA
ATOM      9  N2  UNL     1     -51.713  62.304   5.432  0.00  0.00    -0.222 N 
ATOM     10  C14 UNL     1     -52.939  62.692   5.294  0.00  0.00    +0.257 C 
ATOM     11  O2  UNL     1     -53.307  64.033   5.207  0.00  0.00    -0.270 OA
ATOM     12  C15 UNL     1     -53.885  61.528   5.250  0.00  0.00    +0.110 C 
ATOM     13  C16 UNL     1     -54.828  61.594   6.465  0.00  0.00    +0.015 C 
ATOM     14  C17 UNL     1     -54.641  61.498   3.907  0.00  0.00    +0.015 C 
BRANCH   9  15
ATOM     15  C7  UNL     1     -50.545  63.192   5.538  0.00  0.00    +0.108 C 
ATOM     16  C8  UNL     1     -50.144  63.767   4.150  0.00  0.00    +0.024 C 
ATOM     17  C9  UNL     1     -49.507  65.163   4.254  0.00  0.00    +0.002 C 
ATOM     18  C10 UNL     1     -48.056  65.154   4.746  0.00  0.00    +0.000 C 
ATOM     19  C11 UNL     1     -47.888  64.523   6.138  0.00  0.00    +0.000 C 
ATOM     20  C12 UNL     1     -47.977  62.991   6.081  0.00  0.00    +0.002 C 
ATOM     21  C13 UNL     1     -49.401  62.442   6.274  0.00  0.00    +0.024 C 
ENDBRANCH   9  15
ENDBRANCH   4   7
BRANCH   1  23
ATOM     22  C1  UNL     1     -54.757  54.061   5.406  0.00  0.00    +0.253 C 
ATOM     23  O1  UNL     1     -53.626  54.767   4.908  0.00  0.00    -0.468 OA
ENDBRANCH   1  23
BRANCH   6  24
ATOM     24  O3  UNL     1     -51.139  55.810   4.449  0.00  0.00    -0.472 OA
BRANCH  24  25
ATOM     25  C20 UNL     1     -50.686  55.467   3.138  0.00  0.00    +0.206 C 
BRANCH  25  26
ATOM     26  C21 UNL     1     -49.581  54.402   3.206  0.00  0.00    +0.051 C 
BRANCH  26  27
ATOM     27  C22 UNL     1     -48.232  55.042   3.559  0.00  0.00    +0.051 C 
BRANCH  27  28
ATOM     28  C23 UNL     1     -47.764  54.622   4.955  0.00  0.00    +0.206 C 
BRANCH  28  29
ATOM     29  O4  UNL     1     -47.041  55.684   5.577  0.00  0.00    -0.475 OA
BRANCH  29  30
ATOM     30  C24 UNL     1     -47.603  56.719   6.344  0.00  0.00    +0.139 A 
ATOM     31  C25 UNL     1     -48.865  57.278   6.072  0.00  0.00    +0.037 A 
ATOM     32  C26 UNL     1     -49.382  58.290   6.889  0.00  0.00    +0.006 A 
ATOM     33  C27 UNL     1     -48.648  58.770   7.991  0.00  0.00    +0.040 A 
ATOM     34  C29 UNL     1     -47.380  58.216   8.245  0.00  0.00    +0.006 A 
ATOM     35  C30 UNL     1     -46.868  57.200   7.432  0.00  0.00    +0.037 A 
BRANCH  33  36
ATOM     36  C28 UNL     1     -49.204  59.835   8.876  0.00  0.00    +0.208 A 
ATOM     37  N3  UNL     1     -50.321  60.551   8.627  0.00  0.00    -0.106 NA
ATOM     38  N4  UNL     1     -50.453  61.381   9.649  0.00  0.00    -0.021 NA
ATOM     39  N5  UNL     1     -49.461  61.193  10.504  0.00  0.00    -0.021 NA
ATOM     40  N6  UNL     1     -48.666  60.239  10.049  0.00  0.00    -0.106 NA
ENDBRANCH  33  36
ENDBRANCH  29  30
ENDBRANCH  28  29
ENDBRANCH  27  28
ENDBRANCH  26  27
ENDBRANCH  25  26
ENDBRANCH  24  25
ENDBRANCH   6  24
TORSDOF 11
ENDMDL
MODEL 9
REMARK VINA RESULT:      -7.6      2.729      8.762
REMARK  Name = ./data/4wxx_site2_bc02/pdb/l0c1.pdb
REMARK  11 active torsions:
REMARK  status: ('A' for Active; 'I' for Inactive)
REMARK    1  A    between atoms: O1_2  and  C2_3
REMARK    2  A    between atoms: C5_6  and  C6_7
REMARK    3  A    between atoms: N2_9  and  C7_10
REMARK    4  A    between atoms: C19_23  and  O3_24
REMARK    5  A    between atoms: O3_24  and  C20_25
REMARK    6  A    between atoms: C20_25  and  C21_26
REMARK    7  A    between atoms: C21_26  and  C22_27
REMARK    8  A    between atoms: C22_27  and  C23_28
REMARK    9  A    between atoms: C23_28  and  O4_29
REMARK   10  A    between atoms: O4_29  and  C24_30
REMARK   11  A    between atoms: C27_33  and  C28_34
REMARK                            x       y       z     vdW  Elec       q    Type
REMARK                         _______ _______ _______ _____ _____    ______ ____
ROOT
ATOM      1  C2  UNL     1     -53.123  61.897   8.736  0.00  0.00    +0.172 A 
ATOM      2  C3  UNL     1     -53.811  62.487   7.662  0.00  0.00    +0.040 A 
ATOM      3  C4  UNL     1     -53.116  62.934   6.536  0.00  0.00    +0.005 A 
ATOM      4  C5  UNL     1     -51.718  62.811   6.457  0.00  0.00    +0.019 A 
ATOM      5  C18 UNL     1     -51.042  62.177   7.512  0.00  0.00    +0.041 A 
ATOM      6  C19 UNL     1     -51.732  61.732   8.657  0.00  0.00    +0.172 A 
ENDROOT
BRANCH   4   7
ATOM      7  C6  UNL     1     -50.987  63.400   5.300  0.00  0.00    +0.086 C 
ATOM      8  N1  UNL     1     -51.593  63.655   4.183  0.00  0.00    -0.171 NA
ATOM      9  N2  UNL     1     -50.756  64.397   3.349  0.00  0.00    -0.222 N 
ATOM     10  C14 UNL     1     -49.625  64.617   3.937  0.00  0.00    +0.257 C 
ATOM     11  O2  UNL     1     -48.595  65.351   3.354  0.00  0.00    -0.270 OA
ATOM     12  C15 UNL     1     -49.576  63.980   5.295  0.00  0.00    +0.110 C 
ATOM     13  C16 UNL     1     -48.478  62.901   5.310  0.00  0.00    +0.015 C 
ATOM     14  C17 UNL     1     -49.378  65.050   6.386  0.00  0.00    +0.015 C 
BRANCH   9  15
ATOM     15  C7  UNL     1     -51.117  64.858   1.999  0.00  0.00    +0.108 C 
ATOM     16  C8  UNL     1     -51.392  66.388   1.978  0.00  0.00    +0.024 C 
ATOM     17  C9  UNL     1     -51.042  67.029   0.625  0.00  0.00    +0.002 C 
ATOM     18  C10 UNL     1     -52.069  66.761  -0.479  0.00  0.00    +0.000 C 
ATOM     19  C11 UNL     1     -52.270  65.266  -0.775  0.00  0.00    +0.000 C 
ATOM     20  C12 UNL     1     -53.116  64.581   0.308  0.00  0.00    +0.002 C 
ATOM     21  C13 UNL     1     -52.290  63.991   1.464  0.00  0.00    +0.024 C 
ENDBRANCH   9  15
ENDBRANCH   4   7
BRANCH   1  23
ATOM     22  C1  UNL     1     -54.874  62.143  10.508  0.00  0.00    +0.253 C 
ATOM     23  O1  UNL     1     -53.783  61.462   9.898  0.00  0.00    -0.468 OA
ENDBRANCH   1  23
BRANCH   6  24
ATOM     24  O3  UNL     1     -51.073  61.125   9.746  0.00  0.00    -0.472 OA
BRANCH  24  25
ATOM     25  C20 UNL     1     -49.656  61.034   9.910  0.00  0.00    +0.206 C 
BRANCH  25  26
ATOM     26  C21 UNL     1     -49.235  59.588  10.209  0.00  0.00    +0.051 C 
BRANCH  26  27
ATOM     27  C22 UNL     1     -48.244  59.082   9.152  0.00  0.00    +0.051 C 
BRANCH  27  28
ATOM     28  C23 UNL     1     -47.967  60.150   8.090  0.00  0.00    +0.206 C 
BRANCH  28  29
ATOM     29  O4  UNL     1     -48.536  59.766   6.839  0.00  0.00    -0.475 OA
BRANCH  29  30
ATOM     30  C24 UNL     1     -48.841  58.451   6.447  0.00  0.00    +0.139 A 
ATOM     31  C25 UNL     1     -50.133  58.042   6.069  0.00  0.00    +0.037 A 
ATOM     32  C26 UNL     1     -50.367  56.723   5.664  0.00  0.00    +0.006 A 
ATOM     33  C27 UNL     1     -49.320  55.782   5.635  0.00  0.00    +0.040 A 
ATOM     34  C29 UNL     1     -48.035  56.197   6.030  0.00  0.00    +0.006 A 
ATOM     35  C30 UNL     1     -47.800  57.517   6.427  0.00  0.00    +0.037 A 
BRANCH  33  36
ATOM     36  C28 UNL     1     -49.562  54.380   5.185  0.00  0.00    +0.208 A 
ATOM     37  N3  UNL     1     -48.602  53.468   4.922  0.00  0.00    -0.106 NA
ATOM     38  N4  UNL     1     -49.239  52.370   4.552  0.00  0.00    -0.021 NA
ATOM     39  N5  UNL     1     -50.544  52.582   4.582  0.00  0.00    -0.021 NA
ATOM     40  N6  UNL     1     -50.777  53.825   4.970  0.00  0.00    -0.106 NA
ENDBRANCH  33  36
ENDBRANCH  29  30
ENDBRANCH  28  29
ENDBRANCH  27  28
ENDBRANCH  26  27
ENDBRANCH  25  26
ENDBRANCH  24  25
ENDBRANCH   6  24
TORSDOF 11
ENDMDL
