MODEL 1
REMARK VINA RESULT:      -9.4      0.000      0.000
REMARK  Name = ./data/4wxx_site2_bc02/pdb/l1c1.pdb
REMARK  11 active torsions:
REMARK  status: ('A' for Active; 'I' for Inactive)
REMARK    1  A    between atoms: O1_2  and  C2_3
REMARK    2  A    between atoms: C5_6  and  C6_7
REMARK    3  A    between atoms: N2_9  and  C7_10
REMARK    4  A    between atoms: C22_26  and  O3_27
REMARK    5  A    between atoms: O3_27  and  C23_28
REMARK    6  A    between atoms: C23_28  and  C24_29
REMARK    7  A    between atoms: C24_29  and  C25_30
REMARK    8  A    between atoms: C25_30  and  C26_31
REMARK    9  A    between atoms: C26_31  and  O4_32
REMARK   10  A    between atoms: O4_32  and  C27_33
REMARK   11  A    between atoms: C30_36  and  C31_37
REMARK                            x       y       z     vdW  Elec       q    Type
REMARK                         _______ _______ _______ _____ _____    ______ ____
ROOT
ATOM      1  C2  UNL     1     -51.080  62.034   8.003  0.00  0.00    +0.172 A 
ATOM      2  C3  UNL     1     -49.686  61.898   8.118  0.00  0.00    +0.040 A 
ATOM      3  C4  UNL     1     -49.046  60.739   7.677  0.00  0.00    +0.005 A 
ATOM      4  C5  UNL     1     -49.780  59.688   7.095  0.00  0.00    +0.018 A 
ATOM      5  C21 UNL     1     -51.176  59.838   6.967  0.00  0.00    +0.041 A 
ATOM      6  C22 UNL     1     -51.829  60.995   7.433  0.00  0.00    +0.172 A 
ENDROOT
BRANCH   4   7
ATOM      7  C6  UNL     1     -49.122  58.427   6.632  0.00  0.00    +0.079 C 
ATOM      8  N1  UNL     1     -49.839  57.564   5.981  0.00  0.00    -0.172 NA
ATOM      9  N2  UNL     1     -49.385  56.313   5.522  0.00  0.00    -0.222 N 
ATOM     10  C14 UNL     1     -48.117  55.982   5.584  0.00  0.00    +0.253 C 
ATOM     11  O2  UNL     1     -47.686  54.779   5.017  0.00  0.00    -0.271 OA
ATOM     12  C15 UNL     1     -47.083  56.910   6.201  0.00  0.00    +0.091 C 
ATOM     13  C16 UNL     1     -46.032  56.079   7.010  0.00  0.00    +0.035 C 
ATOM     14  C17 UNL     1     -45.429  56.829   8.167  0.00  0.00    -0.030 C 
ATOM     15  C18 UNL     1     -46.205  57.597   8.937  0.00  0.00    -0.030 C 
ATOM     16  C19 UNL     1     -47.638  57.806   8.550  0.00  0.00    +0.032 C 
ATOM     17  C20 UNL     1     -47.706  58.080   7.033  0.00  0.00    +0.056 C 
BRANCH   9  18
ATOM     18  C7  UNL     1     -50.412  55.439   4.910  0.00  0.00    +0.108 C 
ATOM     19  C8  UNL     1     -50.905  54.383   5.926  0.00  0.00    +0.024 C 
ATOM     20  C9  UNL     1     -51.587  53.175   5.272  0.00  0.00    +0.002 C 
ATOM     21  C10 UNL     1     -52.816  53.544   4.426  0.00  0.00    +0.000 C 
ATOM     22  C11 UNL     1     -52.428  54.136   3.060  0.00  0.00    +0.000 C 
ATOM     23  C12 UNL     1     -52.211  55.662   3.054  0.00  0.00    +0.002 C 
ATOM     24  C13 UNL     1     -51.576  56.271   4.318  0.00  0.00    +0.024 C 
ENDBRANCH   9  18
ENDBRANCH   4   7
BRANCH   1  26
ATOM     25  C1  UNL     1     -51.854  64.394   7.701  0.00  0.00    +0.253 C 
ATOM     26  O1  UNL     1     -51.757  63.183   8.442  0.00  0.00    -0.468 OA
ENDBRANCH   1  26
BRANCH   6  27
ATOM     27  O3  UNL     1     -53.223  61.148   7.355  0.00  0.00    -0.472 OA
BRANCH  27  28
ATOM     28  C23 UNL     1     -53.965  61.213   6.139  0.00  0.00    +0.206 C 
BRANCH  28  29
ATOM     29  C24 UNL     1     -54.682  62.560   6.033  0.00  0.00    +0.051 C 
BRANCH  29  30
ATOM     30  C25 UNL     1     -54.301  63.294   4.738  0.00  0.00    +0.051 C 
BRANCH  30  31
ATOM     31  C26 UNL     1     -53.158  62.591   4.007  0.00  0.00    +0.206 C 
BRANCH  31  32
ATOM     32  O4  UNL     1     -52.435  63.523   3.206  0.00  0.00    -0.475 OA
BRANCH  32  33
ATOM     33  C27 UNL     1     -51.213  64.102   3.583  0.00  0.00    +0.139 A 
ATOM     34  C28 UNL     1     -50.702  65.258   2.962  0.00  0.00    +0.037 A 
ATOM     35  C29 UNL     1     -49.484  65.802   3.375  0.00  0.00    +0.006 A 
ATOM     36  C30 UNL     1     -48.750  65.210   4.420  0.00  0.00    +0.040 A 
ATOM     37  C32 UNL     1     -49.265  64.054   5.035  0.00  0.00    +0.006 A 
ATOM     38  C33 UNL     1     -50.482  63.506   4.615  0.00  0.00    +0.037 A 
BRANCH  36  39
ATOM     39  C31 UNL     1     -47.460  65.800   4.867  0.00  0.00    +0.208 A 
ATOM     40  N3  UNL     1     -46.793  66.791   4.233  0.00  0.00    -0.106 NA
ATOM     41  N4  UNL     1     -45.715  67.023   4.962  0.00  0.00    -0.021 NA
ATOM     42  N5  UNL     1     -45.704  66.214   6.006  0.00  0.00    -0.021 NA
ATOM     43  N6  UNL     1     -46.777  65.441   5.978  0.00  0.00    -0.106 NA
ENDBRANCH  36  39
ENDBRANCH  32  33
ENDBRANCH  31  32
ENDBRANCH  30  31
ENDBRANCH  29  30
ENDBRANCH  28  29
ENDBRANCH  27  28
ENDBRANCH   6  27
TORSDOF 11
ENDMDL
MODEL 2
REMARK VINA RESULT:      -9.3      2.612      9.520
REMARK  Name = ./data/4wxx_site2_bc02/pdb/l1c1.pdb
REMARK  11 active torsions:
REMARK  status: ('A' for Active; 'I' for Inactive)
REMARK    1  A    between atoms: O1_2  and  C2_3
REMARK    2  A    between atoms: C5_6  and  C6_7
REMARK    3  A    between atoms: N2_9  and  C7_10
REMARK    4  A    between atoms: C22_26  and  O3_27
REMARK    5  A    between atoms: O3_27  and  C23_28
REMARK    6  A    between atoms: C23_28  and  C24_29
REMARK    7  A    between atoms: C24_29  and  C25_30
REMARK    8  A    between atoms: C25_30  and  C26_31
REMARK    9  A    between atoms: C26_31  and  O4_32
REMARK   10  A    between atoms: O4_32  and  C27_33
REMARK   11  A    between atoms: C30_36  and  C31_37
REMARK                            x       y       z     vdW  Elec       q    Type
REMARK                         _______ _______ _______ _____ _____    ______ ____
ROOT
ATOM      1  C2  UNL     1     -53.867  60.151   6.055  0.00  0.00    +0.172 A 
ATOM      2  C3  UNL     1     -54.363  60.542   4.799  0.00  0.00    +0.040 A 
ATOM      3  C4  UNL     1     -53.795  61.618   4.115  0.00  0.00    +0.005 A 
ATOM      4  C5  UNL     1     -52.707  62.324   4.659  0.00  0.00    +0.018 A 
ATOM      5  C21 UNL     1     -52.203  61.916   5.911  0.00  0.00    +0.041 A 
ATOM      6  C22 UNL     1     -52.788  60.847   6.617  0.00  0.00    +0.172 A 
ENDROOT
BRANCH   4   7
ATOM      7  C6  UNL     1     -52.094  63.494   3.957  0.00  0.00    +0.079 C 
ATOM      8  N1  UNL     1     -50.911  63.879   4.325  0.00  0.00    -0.172 NA
ATOM      9  N2  UNL     1     -50.218  64.987   3.800  0.00  0.00    -0.222 N 
ATOM     10  C14 UNL     1     -50.668  65.641   2.754  0.00  0.00    +0.253 C 
ATOM     11  O2  UNL     1     -49.898  66.664   2.193  0.00  0.00    -0.271 OA
ATOM     12  C15 UNL     1     -51.983  65.268   2.090  0.00  0.00    +0.091 C 
ATOM     13  C16 UNL     1     -52.740  66.561   1.638  0.00  0.00    +0.035 C 
ATOM     14  C17 UNL     1     -54.238  66.412   1.625  0.00  0.00    -0.030 C 
ATOM     15  C18 UNL     1     -54.848  65.759   2.619  0.00  0.00    -0.030 C 
ATOM     16  C19 UNL     1     -54.016  65.068   3.657  0.00  0.00    +0.032 C 
ATOM     17  C20 UNL     1     -52.873  64.310   2.950  0.00  0.00    +0.056 C 
BRANCH   9  18
ATOM     18  C7  UNL     1     -48.932  65.314   4.456  0.00  0.00    +0.108 C 
ATOM     19  C8  UNL     1     -48.431  64.120   5.300  0.00  0.00    +0.024 C 
ATOM     20  C9  UNL     1     -47.396  64.511   6.362  0.00  0.00    +0.002 C 
ATOM     21  C10 UNL     1     -46.134  65.168   5.780  0.00  0.00    +0.000 C 
ATOM     22  C11 UNL     1     -46.369  66.636   5.387  0.00  0.00    +0.000 C 
ATOM     23  C12 UNL     1     -46.899  66.846   3.955  0.00  0.00    +0.002 C 
ATOM     24  C13 UNL     1     -47.879  65.784   3.423  0.00  0.00    +0.024 C 
ENDBRANCH   9  18
ENDBRANCH   4   7
BRANCH   1  26
ATOM     25  C1  UNL     1     -54.171  57.705   6.488  0.00  0.00    +0.253 C 
ATOM     26  O1  UNL     1     -54.418  59.077   6.774  0.00  0.00    -0.468 OA
ENDBRANCH   1  26
BRANCH   6  27
ATOM     27  O3  UNL     1     -52.330  60.450   7.884  0.00  0.00    -0.472 OA
BRANCH  27  28
ATOM     28  C23 UNL     1     -52.092  61.338   8.975  0.00  0.00    +0.206 C 
BRANCH  28  29
ATOM     29  C24 UNL     1     -50.615  61.732   9.019  0.00  0.00    +0.051 C 
BRANCH  29  30
ATOM     30  C25 UNL     1     -49.706  60.506   8.840  0.00  0.00    +0.051 C 
BRANCH  30  31
ATOM     31  C26 UNL     1     -48.736  60.689   7.674  0.00  0.00    +0.206 C 
BRANCH  31  32
ATOM     32  O4  UNL     1     -49.292  60.148   6.477  0.00  0.00    -0.475 OA
BRANCH  32  33
ATOM     33  C27 UNL     1     -49.381  58.774   6.202  0.00  0.00    +0.139 A 
ATOM     34  C28 UNL     1     -50.535  58.191   5.646  0.00  0.00    +0.037 A 
ATOM     35  C29 UNL     1     -50.577  56.819   5.385  0.00  0.00    +0.006 A 
ATOM     36  C30 UNL     1     -49.467  56.000   5.665  0.00  0.00    +0.040 A 
ATOM     37  C32 UNL     1     -48.318  56.590   6.223  0.00  0.00    +0.006 A 
ATOM     38  C33 UNL     1     -48.281  57.962   6.491  0.00  0.00    +0.037 A 
BRANCH  36  39
ATOM     39  C31 UNL     1     -49.509  54.542   5.372  0.00  0.00    +0.208 A 
ATOM     40  N3  UNL     1     -50.629  53.831   5.108  0.00  0.00    -0.106 NA
ATOM     41  N4  UNL     1     -50.224  52.591   4.893  0.00  0.00    -0.021 NA
ATOM     42  N5  UNL     1     -48.911  52.525   5.018  0.00  0.00    -0.021 NA
ATOM     43  N6  UNL     1     -48.435  53.723   5.315  0.00  0.00    -0.106 NA
ENDBRANCH  36  39
ENDBRANCH  32  33
ENDBRANCH  31  32
ENDBRANCH  30  31
ENDBRANCH  29  30
ENDBRANCH  28  29
ENDBRANCH  27  28
ENDBRANCH   6  27
TORSDOF 11
ENDMDL
MODEL 3
REMARK VINA RESULT:      -8.6      1.550      4.669
REMARK  Name = ./data/4wxx_site2_bc02/pdb/l1c1.pdb
REMARK  11 active torsions:
REMARK  status: ('A' for Active; 'I' for Inactive)
REMARK    1  A    between atoms: O1_2  and  C2_3
REMARK    2  A    between atoms: C5_6  and  C6_7
REMARK    3  A    between atoms: N2_9  and  C7_10
REMARK    4  A    between atoms: C22_26  and  O3_27
REMARK    5  A    between atoms: O3_27  and  C23_28
REMARK    6  A    between atoms: C23_28  and  C24_29
REMARK    7  A    between atoms: C24_29  and  C25_30
REMARK    8  A    between atoms: C25_30  and  C26_31
REMARK    9  A    between atoms: C26_31  and  O4_32
REMARK   10  A    between atoms: O4_32  and  C27_33
REMARK   11  A    between atoms: C30_36  and  C31_37
REMARK                            x       y       z     vdW  Elec       q    Type
REMARK                         _______ _______ _______ _____ _____    ______ ____
ROOT
ATOM      1  C2  UNL     1     -54.177  60.934   5.660  0.00  0.00    +0.172 A 
ATOM      2  C3  UNL     1     -53.453  60.540   4.521  0.00  0.00    +0.040 A 
ATOM      3  C4  UNL     1     -52.741  59.339   4.513  0.00  0.00    +0.005 A 
ATOM      4  C5  UNL     1     -52.744  58.492   5.636  0.00  0.00    +0.018 A 
ATOM      5  C21 UNL     1     -53.486  58.885   6.769  0.00  0.00    +0.041 A 
ATOM      6  C22 UNL     1     -54.187  60.107   6.792  0.00  0.00    +0.172 A 
ENDROOT
BRANCH   4   7
ATOM      7  C6  UNL     1     -51.973  57.210   5.661  0.00  0.00    +0.079 C 
ATOM      8  N1  UNL     1     -50.765  57.230   6.135  0.00  0.00    -0.172 NA
ATOM      9  N2  UNL     1     -49.894  56.125   6.183  0.00  0.00    -0.222 N 
ATOM     10  C14 UNL     1     -50.309  54.915   5.885  0.00  0.00    +0.253 C 
ATOM     11  O2  UNL     1     -49.447  53.827   6.052  0.00  0.00    -0.271 OA
ATOM     12  C15 UNL     1     -51.733  54.654   5.425  0.00  0.00    +0.091 C 
ATOM     13  C16 UNL     1     -51.743  53.562   4.305  0.00  0.00    +0.035 C 
ATOM     14  C17 UNL     1     -52.882  53.704   3.331  0.00  0.00    -0.030 C 
ATOM     15  C18 UNL     1     -53.233  54.917   2.893  0.00  0.00    -0.030 C 
ATOM     16  C19 UNL     1     -52.575  56.126   3.487  0.00  0.00    +0.032 C 
ATOM     17  C20 UNL     1     -52.510  55.951   5.018  0.00  0.00    +0.056 C 
BRANCH   9  18
ATOM     18  C7  UNL     1     -48.519  56.407   6.652  0.00  0.00    +0.108 C 
ATOM     19  C8  UNL     1     -47.477  55.856   5.651  0.00  0.00    +0.024 C 
ATOM     20  C9  UNL     1     -46.080  55.677   6.257  0.00  0.00    +0.002 C 
ATOM     21  C10 UNL     1     -45.477  56.978   6.810  0.00  0.00    +0.000 C 
ATOM     22  C11 UNL     1     -46.079  57.368   8.171  0.00  0.00    +0.000 C 
ATOM     23  C12 UNL     1     -47.356  58.226   8.092  0.00  0.00    +0.002 C 
ATOM     24  C13 UNL     1     -48.320  57.917   6.931  0.00  0.00    +0.024 C 
ENDBRANCH   9  18
ENDBRANCH   4   7
BRANCH   1  26
ATOM     25  C1  UNL     1     -54.365  63.411   5.361  0.00  0.00    +0.253 C 
ATOM     26  O1  UNL     1     -54.899  62.138   5.706  0.00  0.00    -0.468 OA
ENDBRANCH   1  26
BRANCH   6  27
ATOM     27  O3  UNL     1     -54.897  60.538   7.923  0.00  0.00    -0.472 OA
BRANCH  27  28
ATOM     28  C23 UNL     1     -54.611  61.728   8.655  0.00  0.00    +0.206 C 
BRANCH  28  29
ATOM     29  C24 UNL     1     -53.395  61.512   9.558  0.00  0.00    +0.051 C 
BRANCH  29  30
ATOM     30  C25 UNL     1     -52.132  62.141   8.951  0.00  0.00    +0.051 C 
BRANCH  30  31
ATOM     31  C26 UNL     1     -51.143  61.077   8.478  0.00  0.00    +0.206 C 
BRANCH  31  32
ATOM     32  O4  UNL     1     -50.800  61.292   7.111  0.00  0.00    -0.475 OA
BRANCH  32  33
ATOM     33  C27 UNL     1     -49.989  62.345   6.659  0.00  0.00    +0.139 A 
ATOM     34  C28 UNL     1     -50.523  63.568   6.208  0.00  0.00    +0.037 A 
ATOM     35  C29 UNL     1     -49.676  64.590   5.772  0.00  0.00    +0.006 A 
ATOM     36  C30 UNL     1     -48.279  64.419   5.783  0.00  0.00    +0.040 A 
ATOM     37  C32 UNL     1     -47.753  63.194   6.233  0.00  0.00    +0.006 A 
ATOM     38  C33 UNL     1     -48.603  62.169   6.662  0.00  0.00    +0.037 A 
BRANCH  36  39
ATOM     39  C31 UNL     1     -47.380  65.515   5.332  0.00  0.00    +0.208 A 
ATOM     40  N3  UNL     1     -46.249  65.905   5.961  0.00  0.00    -0.106 NA
ATOM     41  N4  UNL     1     -45.751  66.888   5.230  0.00  0.00    -0.021 NA
ATOM     42  N5  UNL     1     -46.534  67.106   4.189  0.00  0.00    -0.021 NA
ATOM     43  N6  UNL     1     -47.557  66.267   4.222  0.00  0.00    -0.106 NA
ENDBRANCH  36  39
ENDBRANCH  32  33
ENDBRANCH  31  32
ENDBRANCH  30  31
ENDBRANCH  29  30
ENDBRANCH  28  29
ENDBRANCH  27  28
ENDBRANCH   6  27
TORSDOF 11
ENDMDL
MODEL 4
REMARK VINA RESULT:      -8.3      2.795     10.014
REMARK  Name = ./data/4wxx_site2_bc02/pdb/l1c1.pdb
REMARK  11 active torsions:
REMARK  status: ('A' for Active; 'I' for Inactive)
REMARK    1  A    between atoms: O1_2  and  C2_3
REMARK    2  A    between atoms: C5_6  and  C6_7
REMARK    3  A    between atoms: N2_9  and  C7_10
REMARK    4  A    between atoms: C22_26  and  O3_27
REMARK    5  A    between atoms: O3_27  and  C23_28
REMARK    6  A    between atoms: C23_28  and  C24_29
REMARK    7  A    between atoms: C24_29  and  C25_30
REMARK    8  A    between atoms: C25_30  and  C26_31
REMARK    9  A    between atoms: C26_31  and  O4_32
REMARK   10  A    between atoms: O4_32  and  C27_33
REMARK   11  A    between atoms: C30_36  and  C31_37
REMARK                            x       y       z     vdW  Elec       q    Type
REMARK                         _______ _______ _______ _____ _____    ______ ____
ROOT
ATOM      1  C2  UNL     1     -48.856  59.377  10.226  0.00  0.00    +0.172 A 
ATOM      2  C3  UNL     1     -49.857  60.328  10.489  0.00  0.00    +0.040 A 
ATOM      3  C4  UNL     1     -50.308  61.182   9.482  0.00  0.00    +0.005 A 
ATOM      4  C5  UNL     1     -49.781  61.102   8.180  0.00  0.00    +0.018 A 
ATOM      5  C21 UNL     1     -48.789  60.136   7.918  0.00  0.00    +0.041 A 
ATOM      6  C22 UNL     1     -48.313  59.287   8.936  0.00  0.00    +0.172 A 
ENDROOT
BRANCH   4   7
ATOM      7  C6  UNL     1     -50.232  62.020   7.088  0.00  0.00    +0.079 C 
ATOM      8  N1  UNL     1     -49.387  62.894   6.633  0.00  0.00    -0.172 NA
ATOM      9  N2  UNL     1     -49.669  63.857   5.646  0.00  0.00    -0.222 N 
ATOM     10  C14 UNL     1     -50.798  63.840   4.978  0.00  0.00    +0.253 C 
ATOM     11  O2  UNL     1     -50.997  64.743   3.929  0.00  0.00    -0.271 OA
ATOM     12  C15 UNL     1     -51.880  62.813   5.271  0.00  0.00    +0.091 C 
ATOM     13  C16 UNL     1     -53.292  63.476   5.161  0.00  0.00    +0.035 C 
ATOM     14  C17 UNL     1     -54.329  62.841   6.048  0.00  0.00    -0.030 C 
ATOM     15  C18 UNL     1     -54.007  62.482   7.294  0.00  0.00    -0.030 C 
ATOM     16  C19 UNL     1     -52.579  62.592   7.739  0.00  0.00    +0.032 C 
ATOM     17  C20 UNL     1     -51.669  62.046   6.619  0.00  0.00    +0.056 C 
BRANCH   9  18
ATOM     18  C7  UNL     1     -48.590  64.833   5.370  0.00  0.00    +0.108 C 
ATOM     19  C8  UNL     1     -47.278  64.407   6.068  0.00  0.00    +0.024 C 
ATOM     20  C9  UNL     1     -46.273  65.554   6.236  0.00  0.00    +0.002 C 
ATOM     21  C10 UNL     1     -45.847  66.198   4.908  0.00  0.00    +0.000 C 
ATOM     22  C11 UNL     1     -46.921  67.147   4.348  0.00  0.00    +0.000 C 
ATOM     23  C12 UNL     1     -47.978  66.471   3.453  0.00  0.00    +0.002 C 
ATOM     24  C13 UNL     1     -48.401  65.044   3.847  0.00  0.00    +0.024 C 
ENDBRANCH   9  18
ENDBRANCH   4   7
BRANCH   1  26
ATOM     25  C1  UNL     1     -48.531  58.712  12.616  0.00  0.00    +0.253 C 
ATOM     26  O1  UNL     1     -48.374  58.506  11.216  0.00  0.00    -0.468 OA
ENDBRANCH   1  26
BRANCH   6  27
ATOM     27  O3  UNL     1     -47.296  58.346   8.709  0.00  0.00    -0.472 OA
BRANCH  27  28
ATOM     28  C23 UNL     1     -47.233  57.475   7.581  0.00  0.00    +0.206 C 
BRANCH  28  29
ATOM     29  C24 UNL     1     -45.832  56.874   7.458  0.00  0.00    +0.051 C 
BRANCH  29  30
ATOM     30  C25 UNL     1     -45.839  55.624   6.566  0.00  0.00    +0.051 C 
BRANCH  30  31
ATOM     31  C26 UNL     1     -46.981  55.661   5.552  0.00  0.00    +0.206 C 
BRANCH  31  32
ATOM     32  O4  UNL     1     -47.636  54.395   5.497  0.00  0.00    -0.475 OA
BRANCH  32  33
ATOM     33  C27 UNL     1     -48.951  54.209   5.043  0.00  0.00    +0.139 A 
ATOM     34  C28 UNL     1     -49.836  53.297   5.649  0.00  0.00    +0.037 A 
ATOM     35  C29 UNL     1     -51.138  53.148   5.166  0.00  0.00    +0.006 A 
ATOM     36  C30 UNL     1     -51.590  53.911   4.073  0.00  0.00    +0.040 A 
ATOM     37  C32 UNL     1     -50.700  54.820   3.471  0.00  0.00    +0.006 A 
ATOM     38  C33 UNL     1     -49.394  54.961   3.951  0.00  0.00    +0.037 A 
BRANCH  36  39
ATOM     39  C31 UNL     1     -52.982  53.762   3.570  0.00  0.00    +0.208 A 
ATOM     40  N3  UNL     1     -53.666  54.699   2.876  0.00  0.00    -0.106 NA
ATOM     41  N4  UNL     1     -54.847  54.163   2.615  0.00  0.00    -0.021 NA
ATOM     42  N5  UNL     1     -54.902  52.945   3.123  0.00  0.00    -0.021 NA
ATOM     43  N6  UNL     1     -53.757  52.664   3.724  0.00  0.00    -0.106 NA
ENDBRANCH  36  39
ENDBRANCH  32  33
ENDBRANCH  31  32
ENDBRANCH  30  31
ENDBRANCH  29  30
ENDBRANCH  28  29
ENDBRANCH  27  28
ENDBRANCH   6  27
TORSDOF 11
ENDMDL
MODEL 5
REMARK VINA RESULT:      -8.3      1.815      2.951
REMARK  Name = ./data/4wxx_site2_bc02/pdb/l1c1.pdb
REMARK  11 active torsions:
REMARK  status: ('A' for Active; 'I' for Inactive)
REMARK    1  A    between atoms: O1_2  and  C2_3
REMARK    2  A    between atoms: C5_6  and  C6_7
REMARK    3  A    between atoms: N2_9  and  C7_10
REMARK    4  A    between atoms: C22_26  and  O3_27
REMARK    5  A    between atoms: O3_27  and  C23_28
REMARK    6  A    between atoms: C23_28  and  C24_29
REMARK    7  A    between atoms: C24_29  and  C25_30
REMARK    8  A    between atoms: C25_30  and  C26_31
REMARK    9  A    between atoms: C26_31  and  O4_32
REMARK   10  A    between atoms: O4_32  and  C27_33
REMARK   11  A    between atoms: C30_36  and  C31_37
REMARK                            x       y       z     vdW  Elec       q    Type
REMARK                         _______ _______ _______ _____ _____    ______ ____
ROOT
ATOM      1  C2  UNL     1     -53.800  61.838   5.877  0.00  0.00    +0.172 A 
ATOM      2  C3  UNL     1     -52.851  61.715   4.848  0.00  0.00    +0.040 A 
ATOM      3  C4  UNL     1     -52.069  60.563   4.738  0.00  0.00    +0.005 A 
ATOM      4  C5  UNL     1     -52.224  59.498   5.644  0.00  0.00    +0.018 A 
ATOM      5  C21 UNL     1     -53.191  59.621   6.663  0.00  0.00    +0.041 A 
ATOM      6  C22 UNL     1     -53.965  60.790   6.794  0.00  0.00    +0.172 A 
ENDROOT
BRANCH   4   7
ATOM      7  C6  UNL     1     -51.386  58.262   5.560  0.00  0.00    +0.079 C 
ATOM      8  N1  UNL     1     -51.985  57.124   5.386  0.00  0.00    -0.172 NA
ATOM      9  N2  UNL     1     -51.347  55.870   5.335  0.00  0.00    -0.222 N 
ATOM     10  C14 UNL     1     -50.039  55.771   5.303  0.00  0.00    +0.253 C 
ATOM     11  O2  UNL     1     -49.443  54.516   5.140  0.00  0.00    -0.271 OA
ATOM     12  C15 UNL     1     -49.146  56.999   5.371  0.00  0.00    +0.091 C 
ATOM     13  C16 UNL     1     -47.881  56.694   6.239  0.00  0.00    +0.035 C 
ATOM     14  C17 UNL     1     -47.321  57.905   6.938  0.00  0.00    -0.030 C 
ATOM     15  C18 UNL     1     -48.150  58.789   7.500  0.00  0.00    -0.030 C 
ATOM     16  C19 UNL     1     -49.628  58.631   7.303  0.00  0.00    +0.032 C 
ATOM     17  C20 UNL     1     -49.897  58.297   5.821  0.00  0.00    +0.056 C 
BRANCH   9  18
ATOM     18  C7  UNL     1     -52.242  54.694   5.251  0.00  0.00    +0.108 C 
ATOM     19  C8  UNL     1     -52.080  53.796   6.499  0.00  0.00    +0.024 C 
ATOM     20  C9  UNL     1     -52.586  52.362   6.292  0.00  0.00    +0.002 C 
ATOM     21  C10 UNL     1     -54.073  52.283   5.914  0.00  0.00    +0.000 C 
ATOM     22  C11 UNL     1     -54.320  52.643   4.438  0.00  0.00    +0.000 C 
ATOM     23  C12 UNL     1     -54.534  54.145   4.166  0.00  0.00    +0.002 C 
ATOM     24  C13 UNL     1     -53.713  55.123   5.026  0.00  0.00    +0.024 C 
ENDBRANCH   9  18
ENDBRANCH   4   7
BRANCH   1  26
ATOM     25  C1  UNL     1     -54.227  64.286   5.582  0.00  0.00    +0.253 C 
ATOM     26  O1  UNL     1     -54.599  62.985   6.022  0.00  0.00    -0.468 OA
ENDBRANCH   1  26
BRANCH   6  27
ATOM     27  O3  UNL     1     -54.902  60.953   7.826  0.00  0.00    -0.472 OA
BRANCH  27  28
ATOM     28  C23 UNL     1     -54.778  61.889   8.895  0.00  0.00    +0.206 C 
BRANCH  28  29
ATOM     29  C24 UNL     1     -53.523  61.588   9.714  0.00  0.00    +0.051 C 
BRANCH  29  30
ATOM     30  C25 UNL     1     -52.322  62.407   9.216  0.00  0.00    +0.051 C 
BRANCH  30  31
ATOM     31  C26 UNL     1     -51.068  61.545   9.084  0.00  0.00    +0.206 C 
BRANCH  31  32
ATOM     32  O4  UNL     1     -50.621  61.525   7.730  0.00  0.00    -0.475 OA
BRANCH  32  33
ATOM     33  C27 UNL     1     -49.846  62.536   7.141  0.00  0.00    +0.139 A 
ATOM     34  C28 UNL     1     -50.327  63.847   6.962  0.00  0.00    +0.037 A 
ATOM     35  C29 UNL     1     -49.517  64.823   6.376  0.00  0.00    +0.006 A 
ATOM     36  C30 UNL     1     -48.208  64.516   5.962  0.00  0.00    +0.040 A 
ATOM     37  C32 UNL     1     -47.734  63.203   6.142  0.00  0.00    +0.006 A 
ATOM     38  C33 UNL     1     -48.549  62.225   6.722  0.00  0.00    +0.037 A 
BRANCH  36  39
ATOM     39  C31 UNL     1     -47.343  65.561   5.351  0.00  0.00    +0.208 A 
ATOM     40  N3  UNL     1     -46.246  66.101   5.929  0.00  0.00    -0.106 NA
ATOM     41  N4  UNL     1     -45.770  66.970   5.053  0.00  0.00    -0.021 NA
ATOM     42  N5  UNL     1     -46.534  66.976   3.975  0.00  0.00    -0.021 NA
ATOM     43  N6  UNL     1     -47.521  66.110   4.128  0.00  0.00    -0.106 NA
ENDBRANCH  36  39
ENDBRANCH  32  33
ENDBRANCH  31  32
ENDBRANCH  30  31
ENDBRANCH  29  30
ENDBRANCH  28  29
ENDBRANCH  27  28
ENDBRANCH   6  27
TORSDOF 11
ENDMDL
MODEL 6
REMARK VINA RESULT:      -8.0      2.864      4.145
REMARK  Name = ./data/4wxx_site2_bc02/pdb/l1c1.pdb
REMARK  11 active torsions:
REMARK  status: ('A' for Active; 'I' for Inactive)
REMARK    1  A    between atoms: O1_2  and  C2_3
REMARK    2  A    between atoms: C5_6  and  C6_7
REMARK    3  A    between atoms: N2_9  and  C7_10
REMARK    4  A    between atoms: C22_26  and  O3_27
REMARK    5  A    between atoms: O3_27  and  C23_28
REMARK    6  A    between atoms: C23_28  and  C24_29
REMARK    7  A    between atoms: C24_29  and  C25_30
REMARK    8  A    between atoms: C25_30  and  C26_31
REMARK    9  A    between atoms: C26_31  and  O4_32
REMARK   10  A    between atoms: O4_32  and  C27_33
REMARK   11  A    between atoms: C30_36  and  C31_37
REMARK                            x       y       z     vdW  Elec       q    Type
REMARK                         _______ _______ _______ _____ _____    ______ ____
ROOT
ATOM      1  C2  UNL     1     -52.527  60.637   6.085  0.00  0.00    +0.172 A 
ATOM      2  C3  UNL     1     -53.194  59.566   5.465  0.00  0.00    +0.040 A 
ATOM      3  C4  UNL     1     -52.554  58.339   5.285  0.00  0.00    +0.005 A 
ATOM      4  C5  UNL     1     -51.235  58.143   5.733  0.00  0.00    +0.018 A 
ATOM      5  C21 UNL     1     -50.577  59.215   6.369  0.00  0.00    +0.041 A 
ATOM      6  C22 UNL     1     -51.210  60.463   6.531  0.00  0.00    +0.172 A 
ENDROOT
BRANCH   4   7
ATOM      7  C6  UNL     1     -50.518  56.844   5.534  0.00  0.00    +0.079 C 
ATOM      8  N1  UNL     1     -51.225  55.757   5.473  0.00  0.00    -0.172 NA
ATOM      9  N2  UNL     1     -50.702  54.457   5.339  0.00  0.00    -0.222 N 
ATOM     10  C14 UNL     1     -49.428  54.254   5.100  0.00  0.00    +0.253 C 
ATOM     11  O2  UNL     1     -48.965  52.957   4.862  0.00  0.00    -0.271 OA
ATOM     12  C15 UNL     1     -48.443  55.408   5.009  0.00  0.00    +0.091 C 
ATOM     13  C16 UNL     1     -47.083  55.006   5.669  0.00  0.00    +0.035 C 
ATOM     14  C17 UNL     1     -46.326  56.169   6.253  0.00  0.00    -0.030 C 
ATOM     15  C18 UNL     1     -46.984  57.117   6.927  0.00  0.00    -0.030 C 
ATOM     16  C19 UNL     1     -48.482  57.076   6.970  0.00  0.00    +0.032 C 
ATOM     17  C20 UNL     1     -49.009  56.763   5.555  0.00  0.00    +0.056 C 
BRANCH   9  18
ATOM     18  C7  UNL     1     -51.688  53.355   5.415  0.00  0.00    +0.108 C 
ATOM     19  C8  UNL     1     -52.581  53.507   6.667  0.00  0.00    +0.024 C 
ATOM     20  C9  UNL     1     -53.285  52.208   7.080  0.00  0.00    +0.002 C 
ATOM     21  C10 UNL     1     -54.196  51.627   5.988  0.00  0.00    +0.000 C 
ATOM     22  C11 UNL     1     -53.399  50.911   4.883  0.00  0.00    +0.000 C 
ATOM     23  C12 UNL     1     -52.930  51.820   3.731  0.00  0.00    +0.002 C 
ATOM     24  C13 UNL     1     -52.519  53.255   4.111  0.00  0.00    +0.024 C 
ENDBRANCH   9  18
ENDBRANCH   4   7
BRANCH   1  26
ATOM     25  C1  UNL     1     -54.415  62.077   6.876  0.00  0.00    +0.253 C 
ATOM     26  O1  UNL     1     -53.138  61.887   6.276  0.00  0.00    -0.468 OA
ENDBRANCH   1  26
BRANCH   6  27
ATOM     27  O3  UNL     1     -50.560  61.558   7.123  0.00  0.00    -0.472 OA
BRANCH  27  28
ATOM     28  C23 UNL     1     -49.303  61.490   7.793  0.00  0.00    +0.206 C 
BRANCH  28  29
ATOM     29  C24 UNL     1     -48.184  61.220   6.786  0.00  0.00    +0.051 C 
BRANCH  29  30
ATOM     30  C25 UNL     1     -48.099  62.337   5.735  0.00  0.00    +0.051 C 
BRANCH  30  31
ATOM     31  C26 UNL     1     -47.647  63.659   6.353  0.00  0.00    +0.206 C 
BRANCH  31  32
ATOM     32  O4  UNL     1     -48.689  64.629   6.264  0.00  0.00    -0.475 OA
BRANCH  32  33
ATOM     33  C27 UNL     1     -49.544  64.767   5.159  0.00  0.00    +0.139 A 
ATOM     34  C28 UNL     1     -49.108  65.302   3.932  0.00  0.00    +0.037 A 
ATOM     35  C29 UNL     1     -49.993  65.415   2.857  0.00  0.00    +0.006 A 
ATOM     36  C30 UNL     1     -51.330  64.993   2.980  0.00  0.00    +0.040 A 
ATOM     37  C32 UNL     1     -51.759  64.462   4.210  0.00  0.00    +0.006 A 
ATOM     38  C33 UNL     1     -50.873  64.356   5.287  0.00  0.00    +0.037 A 
BRANCH  36  39
ATOM     39  C31 UNL     1     -52.266  65.102   1.829  0.00  0.00    +0.208 A 
ATOM     40  N3  UNL     1     -52.456  64.154   0.884  0.00  0.00    -0.106 NA
ATOM     41  N4  UNL     1     -53.371  64.641   0.064  0.00  0.00    -0.021 NA
ATOM     42  N5  UNL     1     -53.739  65.842   0.474  0.00  0.00    -0.021 NA
ATOM     43  N6  UNL     1     -53.071  66.158   1.571  0.00  0.00    -0.106 NA
ENDBRANCH  36  39
ENDBRANCH  32  33
ENDBRANCH  31  32
ENDBRANCH  30  31
ENDBRANCH  29  30
ENDBRANCH  28  29
ENDBRANCH  27  28
ENDBRANCH   6  27
TORSDOF 11
ENDMDL
MODEL 7
REMARK VINA RESULT:      -7.9      2.512      9.086
REMARK  Name = ./data/4wxx_site2_bc02/pdb/l1c1.pdb
REMARK  11 active torsions:
REMARK  status: ('A' for Active; 'I' for Inactive)
REMARK    1  A    between atoms: O1_2  and  C2_3
REMARK    2  A    between atoms: C5_6  and  C6_7
REMARK    3  A    between atoms: N2_9  and  C7_10
REMARK    4  A    between atoms: C22_26  and  O3_27
REMARK    5  A    between atoms: O3_27  and  C23_28
REMARK    6  A    between atoms: C23_28  and  C24_29
REMARK    7  A    between atoms: C24_29  and  C25_30
REMARK    8  A    between atoms: C25_30  and  C26_31
REMARK    9  A    between atoms: C26_31  and  O4_32
REMARK   10  A    between atoms: O4_32  and  C27_33
REMARK   11  A    between atoms: C30_36  and  C31_37
REMARK                            x       y       z     vdW  Elec       q    Type
REMARK                         _______ _______ _______ _____ _____    ______ ____
ROOT
ATOM      1  C2  UNL     1     -48.720  59.332  10.267  0.00  0.00    +0.172 A 
ATOM      2  C3  UNL     1     -49.729  60.258  10.585  0.00  0.00    +0.040 A 
ATOM      3  C4  UNL     1     -50.216  61.137   9.618  0.00  0.00    +0.005 A 
ATOM      4  C5  UNL     1     -49.721  61.107   8.301  0.00  0.00    +0.018 A 
ATOM      5  C21 UNL     1     -48.721  60.165   7.984  0.00  0.00    +0.041 A 
ATOM      6  C22 UNL     1     -48.207  59.291   8.963  0.00  0.00    +0.172 A 
ENDROOT
BRANCH   4   7
ATOM      7  C6  UNL     1     -50.211  62.052   7.250  0.00  0.00    +0.079 C 
ATOM      8  N1  UNL     1     -49.371  62.907   6.753  0.00  0.00    -0.172 NA
ATOM      9  N2  UNL     1     -49.685  63.891   5.797  0.00  0.00    -0.222 N 
ATOM     10  C14 UNL     1     -50.855  63.916   5.201  0.00  0.00    +0.253 C 
ATOM     11  O2  UNL     1     -51.091  64.838   4.178  0.00  0.00    -0.271 OA
ATOM     12  C15 UNL     1     -51.945  62.917   5.550  0.00  0.00    +0.091 C 
ATOM     13  C16 UNL     1     -53.342  63.622   5.537  0.00  0.00    +0.035 C 
ATOM     14  C17 UNL     1     -54.340  63.005   6.480  0.00  0.00    -0.030 C 
ATOM     15  C18 UNL     1     -53.951  62.620   7.699  0.00  0.00    -0.030 C 
ATOM     16  C19 UNL     1     -52.495  62.683   8.055  0.00  0.00    +0.032 C 
ATOM     17  C20 UNL     1     -51.674  62.126   6.874  0.00  0.00    +0.056 C 
BRANCH   9  18
ATOM     18  C7  UNL     1     -48.597  64.839   5.465  0.00  0.00    +0.108 C 
ATOM     19  C8  UNL     1     -47.289  64.440   6.184  0.00  0.00    +0.024 C 
ATOM     20  C9  UNL     1     -46.272  65.584   6.287  0.00  0.00    +0.002 C 
ATOM     21  C10 UNL     1     -45.842  66.149   4.924  0.00  0.00    +0.000 C 
ATOM     22  C11 UNL     1     -46.908  67.076   4.313  0.00  0.00    +0.000 C 
ATOM     23  C12 UNL     1     -47.973  66.361   3.459  0.00  0.00    +0.002 C 
ATOM     24  C13 UNL     1     -48.409  64.962   3.933  0.00  0.00    +0.024 C 
ENDBRANCH   9  18
ENDBRANCH   4   7
BRANCH   1  26
ATOM     25  C1  UNL     1     -48.401  58.548  12.622  0.00  0.00    +0.253 C 
ATOM     26  O1  UNL     1     -48.201  58.437  11.217  0.00  0.00    -0.468 OA
ENDBRANCH   1  26
BRANCH   6  27
ATOM     27  O3  UNL     1     -47.183  58.374   8.681  0.00  0.00    -0.472 OA
BRANCH  27  28
ATOM     28  C23 UNL     1     -47.358  57.159   7.956  0.00  0.00    +0.206 C 
BRANCH  28  29
ATOM     29  C24 UNL     1     -46.103  56.849   7.137  0.00  0.00    +0.051 C 
BRANCH  29  30
ATOM     30  C25 UNL     1     -46.175  55.445   6.519  0.00  0.00    +0.051 C 
BRANCH  30  31
ATOM     31  C26 UNL     1     -46.696  55.487   5.083  0.00  0.00    +0.206 C 
BRANCH  31  32
ATOM     32  O4  UNL     1     -47.977  54.865   5.003  0.00  0.00    -0.475 OA
BRANCH  32  33
ATOM     33  C27 UNL     1     -49.192  55.538   5.209  0.00  0.00    +0.139 A 
ATOM     34  C28 UNL     1     -50.392  54.858   5.490  0.00  0.00    +0.037 A 
ATOM     35  C29 UNL     1     -51.577  55.571   5.692  0.00  0.00    +0.006 A 
ATOM     36  C30 UNL     1     -51.590  56.976   5.626  0.00  0.00    +0.040 A 
ATOM     37  C32 UNL     1     -50.387  57.649   5.343  0.00  0.00    +0.006 A 
ATOM     38  C33 UNL     1     -49.204  56.934   5.132  0.00  0.00    +0.037 A 
BRANCH  36  39
ATOM     39  C31 UNL     1     -52.850  57.733   5.857  0.00  0.00    +0.208 A 
ATOM     40  N3  UNL     1     -52.952  58.885   6.556  0.00  0.00    -0.106 NA
ATOM     41  N4  UNL     1     -54.229  59.225   6.507  0.00  0.00    -0.021 NA
ATOM     42  N5  UNL     1     -54.900  58.325   5.810  0.00  0.00    -0.021 NA
ATOM     43  N6  UNL     1     -54.071  57.383   5.390  0.00  0.00    -0.106 NA
ENDBRANCH  36  39
ENDBRANCH  32  33
ENDBRANCH  31  32
ENDBRANCH  30  31
ENDBRANCH  29  30
ENDBRANCH  28  29
ENDBRANCH  27  28
ENDBRANCH   6  27
TORSDOF 11
ENDMDL
MODEL 8
REMARK VINA RESULT:      -7.8      3.241      9.033
REMARK  Name = ./data/4wxx_site2_bc02/pdb/l1c1.pdb
REMARK  11 active torsions:
REMARK  status: ('A' for Active; 'I' for Inactive)
REMARK    1  A    between atoms: O1_2  and  C2_3
REMARK    2  A    between atoms: C5_6  and  C6_7
REMARK    3  A    between atoms: N2_9  and  C7_10
REMARK    4  A    between atoms: C22_26  and  O3_27
REMARK    5  A    between atoms: O3_27  and  C23_28
REMARK    6  A    between atoms: C23_28  and  C24_29
REMARK    7  A    between atoms: C24_29  and  C25_30
REMARK    8  A    between atoms: C25_30  and  C26_31
REMARK    9  A    between atoms: C26_31  and  O4_32
REMARK   10  A    between atoms: O4_32  and  C27_33
REMARK   11  A    between atoms: C30_36  and  C31_37
REMARK                            x       y       z     vdW  Elec       q    Type
REMARK                         _______ _______ _______ _____ _____    ______ ____
ROOT
ATOM      1  C2  UNL     1     -50.543  60.689   7.836  0.00  0.00    +0.172 A 
ATOM      2  C3  UNL     1     -50.141  62.014   8.075  0.00  0.00    +0.040 A 
ATOM      3  C4  UNL     1     -50.846  63.081   7.515  0.00  0.00    +0.005 A 
ATOM      4  C5  UNL     1     -51.980  62.854   6.714  0.00  0.00    +0.018 A 
ATOM      5  C21 UNL     1     -52.387  61.523   6.493  0.00  0.00    +0.041 A 
ATOM      6  C22 UNL     1     -51.666  60.441   7.035  0.00  0.00    +0.172 A 
ENDROOT
BRANCH   4   7
ATOM      7  C6  UNL     1     -52.741  63.978   6.085  0.00  0.00    +0.079 C 
ATOM      8  N1  UNL     1     -52.762  64.057   4.790  0.00  0.00    -0.172 NA
ATOM      9  N2  UNL     1     -53.388  65.076   4.049  0.00  0.00    -0.222 N 
ATOM     10  C14 UNL     1     -54.157  65.968   4.629  0.00  0.00    +0.253 C 
ATOM     11  O2  UNL     1     -54.852  66.897   3.848  0.00  0.00    -0.271 OA
ATOM     12  C15 UNL     1     -54.368  65.977   6.134  0.00  0.00    +0.091 C 
ATOM     13  C16 UNL     1     -54.420  67.450   6.659  0.00  0.00    +0.035 C 
ATOM     14  C17 UNL     1     -53.938  67.604   8.077  0.00  0.00    -0.030 C 
ATOM     15  C18 UNL     1     -52.859  66.932   8.488  0.00  0.00    -0.030 C 
ATOM     16  C19 UNL     1     -52.230  65.929   7.568  0.00  0.00    +0.032 C 
ATOM     17  C20 UNL     1     -53.347  65.086   6.917  0.00  0.00    +0.056 C 
BRANCH   9  18
ATOM     18  C7  UNL     1     -53.179  65.031   2.584  0.00  0.00    +0.108 C 
ATOM     19  C8  UNL     1     -52.065  66.016   2.161  0.00  0.00    +0.024 C 
ATOM     20  C9  UNL     1     -52.104  66.383   0.672  0.00  0.00    +0.002 C 
ATOM     21  C10 UNL     1     -51.966  65.172  -0.264  0.00  0.00    +0.000 C 
ATOM     22  C11 UNL     1     -53.271  64.365  -0.371  0.00  0.00    +0.000 C 
ATOM     23  C12 UNL     1     -53.443  63.268   0.698  0.00  0.00    +0.002 C 
ATOM     24  C13 UNL     1     -52.897  63.586   2.102  0.00  0.00    +0.024 C 
ENDBRANCH   9  18
ENDBRANCH   4   7
BRANCH   1  26
ATOM     25  C1  UNL     1     -48.688  59.692   9.189  0.00  0.00    +0.253 C 
ATOM     26  O1  UNL     1     -49.853  59.591   8.378  0.00  0.00    -0.468 OA
ENDBRANCH   1  26
BRANCH   6  27
ATOM     27  O3  UNL     1     -52.028  59.107   6.793  0.00  0.00    -0.472 OA
BRANCH  27  28
ATOM     28  C23 UNL     1     -52.456  58.598   5.531  0.00  0.00    +0.206 C 
BRANCH  28  29
ATOM     29  C24 UNL     1     -53.275  57.322   5.730  0.00  0.00    +0.051 C 
BRANCH  29  30
ATOM     30  C25 UNL     1     -52.990  56.298   4.621  0.00  0.00    +0.051 C 
BRANCH  30  31
ATOM     31  C26 UNL     1     -51.567  56.434   4.080  0.00  0.00    +0.206 C 
BRANCH  31  32
ATOM     32  O4  UNL     1     -50.721  55.441   4.655  0.00  0.00    -0.475 OA
BRANCH  32  33
ATOM     33  C27 UNL     1     -49.470  55.710   5.232  0.00  0.00    +0.139 A 
ATOM     34  C28 UNL     1     -49.251  56.816   6.074  0.00  0.00    +0.037 A 
ATOM     35  C29 UNL     1     -47.989  57.042   6.630  0.00  0.00    +0.006 A 
ATOM     36  C30 UNL     1     -46.920  56.166   6.365  0.00  0.00    +0.040 A 
ATOM     37  C32 UNL     1     -47.146  55.063   5.521  0.00  0.00    +0.006 A 
ATOM     38  C33 UNL     1     -48.408  54.843   4.959  0.00  0.00    +0.037 A 
BRANCH  36  39
ATOM     39  C31 UNL     1     -45.582  56.400   6.971  0.00  0.00    +0.208 A 
ATOM     40  N3  UNL     1     -44.409  56.394   6.298  0.00  0.00    -0.106 NA
ATOM     41  N4  UNL     1     -43.477  56.655   7.199  0.00  0.00    -0.021 NA
ATOM     42  N5  UNL     1     -44.038  56.818   8.384  0.00  0.00    -0.021 NA
ATOM     43  N6  UNL     1     -45.348  56.666   8.276  0.00  0.00    -0.106 NA
ENDBRANCH  36  39
ENDBRANCH  32  33
ENDBRANCH  31  32
ENDBRANCH  30  31
ENDBRANCH  29  30
ENDBRANCH  28  29
ENDBRANCH  27  28
ENDBRANCH   6  27
TORSDOF 11
ENDMDL
MODEL 9
REMARK VINA RESULT:      -7.5      2.114      5.521
REMARK  Name = ./data/4wxx_site2_bc02/pdb/l1c1.pdb
REMARK  11 active torsions:
REMARK  status: ('A' for Active; 'I' for Inactive)
REMARK    1  A    between atoms: O1_2  and  C2_3
REMARK    2  A    between atoms: C5_6  and  C6_7
REMARK    3  A    between atoms: N2_9  and  C7_10
REMARK    4  A    between atoms: C22_26  and  O3_27
REMARK    5  A    between atoms: O3_27  and  C23_28
REMARK    6  A    between atoms: C23_28  and  C24_29
REMARK    7  A    between atoms: C24_29  and  C25_30
REMARK    8  A    between atoms: C25_30  and  C26_31
REMARK    9  A    between atoms: C26_31  and  O4_32
REMARK   10  A    between atoms: O4_32  and  C27_33
REMARK   11  A    between atoms: C30_36  and  C31_37
REMARK                            x       y       z     vdW  Elec       q    Type
REMARK                         _______ _______ _______ _____ _____    ______ ____
ROOT
ATOM      1  C2  UNL     1     -46.538  56.536   6.719  0.00  0.00    +0.172 A 
ATOM      2  C3  UNL     1     -47.070  55.735   5.694  0.00  0.00    +0.040 A 
ATOM      3  C4  UNL     1     -48.434  55.769   5.401  0.00  0.00    +0.005 A 
ATOM      4  C5  UNL     1     -49.303  56.615   6.115  0.00  0.00    +0.018 A 
ATOM      5  C21 UNL     1     -48.761  57.428   7.131  0.00  0.00    +0.041 A 
ATOM      6  C22 UNL     1     -47.389  57.380   7.447  0.00  0.00    +0.172 A 
ENDROOT
BRANCH   4   7
ATOM      7  C6  UNL     1     -50.773  56.655   5.835  0.00  0.00    +0.079 C 
ATOM      8  N1  UNL     1     -51.319  55.620   5.275  0.00  0.00    -0.172 NA
ATOM      9  N2  UNL     1     -52.673  55.519   4.904  0.00  0.00    -0.222 N 
ATOM     10  C14 UNL     1     -53.546  56.435   5.250  0.00  0.00    +0.253 C 
ATOM     11  O2  UNL     1     -54.901  56.246   4.960  0.00  0.00    -0.271 OA
ATOM     12  C15 UNL     1     -53.132  57.676   6.024  0.00  0.00    +0.091 C 
ATOM     13  C16 UNL     1     -53.930  58.919   5.509  0.00  0.00    +0.035 C 
ATOM     14  C17 UNL     1     -53.183  60.219   5.655  0.00  0.00    -0.030 C 
ATOM     15  C18 UNL     1     -51.879  60.270   5.372  0.00  0.00    -0.030 C 
ATOM     16  C19 UNL     1     -51.152  59.000   5.047  0.00  0.00    +0.032 C 
ATOM     17  C20 UNL     1     -51.585  57.912   6.052  0.00  0.00    +0.056 C 
BRANCH   9  18
ATOM     18  C7  UNL     1     -53.050  54.291   4.167  0.00  0.00    +0.108 C 
ATOM     19  C8  UNL     1     -53.219  54.590   2.659  0.00  0.00    +0.024 C 
ATOM     20  C9  UNL     1     -54.046  53.535   1.914  0.00  0.00    +0.002 C 
ATOM     21  C10 UNL     1     -53.453  52.120   1.993  0.00  0.00    +0.000 C 
ATOM     22  C11 UNL     1     -53.719  51.450   3.352  0.00  0.00    +0.000 C 
ATOM     23  C12 UNL     1     -52.661  51.739   4.435  0.00  0.00    +0.002 C 
ATOM     24  C13 UNL     1     -52.038  53.148   4.427  0.00  0.00    +0.024 C 
ENDBRANCH   9  18
ENDBRANCH   4   7
BRANCH   1  26
ATOM     25  C1  UNL     1     -44.598  55.731   8.080  0.00  0.00    +0.253 C 
ATOM     26  O1  UNL     1     -45.172  56.522   7.045  0.00  0.00    -0.468 OA
ENDBRANCH   1  26
BRANCH   6  27
ATOM     27  O3  UNL     1     -46.835  58.149   8.482  0.00  0.00    -0.472 OA
BRANCH  27  28
ATOM     28  C23 UNL     1     -47.126  57.975   9.867  0.00  0.00    +0.206 C 
BRANCH  28  29
ATOM     29  C24 UNL     1     -48.154  59.013  10.322  0.00  0.00    +0.051 C 
BRANCH  29  30
ATOM     30  C25 UNL     1     -48.472  60.011   9.199  0.00  0.00    +0.051 C 
BRANCH  30  31
ATOM     31  C26 UNL     1     -49.818  60.700   9.422  0.00  0.00    +0.206 C 
BRANCH  31  32
ATOM     32  O4  UNL     1     -50.353  61.154   8.180  0.00  0.00    -0.475 OA
BRANCH  32  33
ATOM     33  C27 UNL     1     -49.794  62.189   7.414  0.00  0.00    +0.139 A 
ATOM     34  C28 UNL     1     -50.249  63.519   7.497  0.00  0.00    +0.037 A 
ATOM     35  C29 UNL     1     -49.659  64.517   6.719  0.00  0.00    +0.006 A 
ATOM     36  C30 UNL     1     -48.598  64.214   5.845  0.00  0.00    +0.040 A 
ATOM     37  C32 UNL     1     -48.149  62.882   5.766  0.00  0.00    +0.006 A 
ATOM     38  C33 UNL     1     -48.747  61.883   6.541  0.00  0.00    +0.037 A 
BRANCH  36  39
ATOM     39  C31 UNL     1     -47.961  65.282   5.029  0.00  0.00    +0.208 A 
ATOM     40  N3  UNL     1     -48.282  65.583   3.750  0.00  0.00    -0.106 NA
ATOM     41  N4  UNL     1     -47.497  66.591   3.410  0.00  0.00    -0.021 NA
ATOM     42  N5  UNL     1     -46.717  66.908   4.428  0.00  0.00    -0.021 NA
ATOM     43  N6  UNL     1     -46.981  66.113   5.452  0.00  0.00    -0.106 NA
ENDBRANCH  36  39
ENDBRANCH  32  33
ENDBRANCH  31  32
ENDBRANCH  30  31
ENDBRANCH  29  30
ENDBRANCH  28  29
ENDBRANCH  27  28
ENDBRANCH   6  27
TORSDOF 11
ENDMDL
