MODEL 1
REMARK VINA RESULT:      -9.5      0.000      0.000
REMARK  Name = ./data/4wxx_site2_bc02/pdb/l1c2.pdb
REMARK  11 active torsions:
REMARK  status: ('A' for Active; 'I' for Inactive)
REMARK    1  A    between atoms: O1_2  and  C2_3
REMARK    2  A    between atoms: C5_6  and  C6_7
REMARK    3  A    between atoms: N2_9  and  C7_10
REMARK    4  A    between atoms: C22_26  and  O3_27
REMARK    5  A    between atoms: O3_27  and  C23_28
REMARK    6  A    between atoms: C23_28  and  C24_29
REMARK    7  A    between atoms: C24_29  and  C25_30
REMARK    8  A    between atoms: C25_30  and  C26_31
REMARK    9  A    between atoms: C26_31  and  O4_32
REMARK   10  A    between atoms: O4_32  and  C27_33
REMARK   11  A    between atoms: C30_36  and  C31_37
REMARK                            x       y       z     vdW  Elec       q    Type
REMARK                         _______ _______ _______ _____ _____    ______ ____
ROOT
ATOM      1  C2  UNL     1     -72.007  61.703 -11.711  0.00  0.00    +0.172 A 
ATOM      2  C3  UNL     1     -71.831  60.338 -12.009  0.00  0.00    +0.040 A 
ATOM      3  C4  UNL     1     -70.727  59.911 -12.750  0.00  0.00    +0.005 A 
ATOM      4  C5  UNL     1     -69.773  60.838 -13.190  0.00  0.00    +0.018 A 
ATOM      5  C21 UNL     1     -69.965  62.203 -12.927  0.00  0.00    +0.041 A 
ATOM      6  C22 UNL     1     -71.070  62.642 -12.173  0.00  0.00    +0.172 A 
ENDROOT
BRANCH   4   7
ATOM      7  C6  UNL     1     -68.578  60.412 -13.942  0.00  0.00    +0.079 C 
ATOM      8  N1  UNL     1     -67.623  59.824 -13.281  0.00  0.00    -0.172 NA
ATOM      9  N2  UNL     1     -66.523  59.185 -13.901  0.00  0.00    -0.222 N 
ATOM     10  C14 UNL     1     -66.279  59.378 -15.182  0.00  0.00    +0.253 C 
ATOM     11  O2  UNL     1     -65.218  58.736 -15.823  0.00  0.00    -0.271 OA
ATOM     12  C15 UNL     1     -67.138  60.334 -15.974  0.00  0.00    +0.091 C 
ATOM     13  C16 UNL     1     -66.561  61.760 -15.871  0.00  0.00    +0.035 C 
ATOM     14  C17 UNL     1     -67.526  62.826 -16.314  0.00  0.00    -0.030 C 
ATOM     15  C18 UNL     1     -68.850  62.629 -16.367  0.00  0.00    -0.030 C 
ATOM     16  C19 UNL     1     -69.473  61.266 -16.228  0.00  0.00    +0.032 C 
ATOM     17  C20 UNL     1     -68.584  60.271 -15.454  0.00  0.00    +0.056 C 
BRANCH   9  18
ATOM     18  C7  UNL     1     -65.745  58.250 -13.062  0.00  0.00    +0.108 C 
ATOM     19  C8  UNL     1     -66.011  56.780 -13.459  0.00  0.00    +0.024 C 
ATOM     20  C9  UNL     1     -65.165  55.766 -12.670  0.00  0.00    +0.002 C 
ATOM     21  C10 UNL     1     -65.686  55.568 -11.235  0.00  0.00    +0.000 C 
ATOM     22  C11 UNL     1     -65.091  56.537 -10.195  0.00  0.00    +0.000 C 
ATOM     23  C12 UNL     1     -64.840  57.980 -10.674  0.00  0.00    +0.002 C 
ATOM     24  C13 UNL     1     -65.961  58.554 -11.559  0.00  0.00    +0.024 C 
ENDBRANCH   9  18
ENDBRANCH   4   7
BRANCH   1  26
ATOM     25  C1  UNL     1     -73.388  61.736  -9.624  0.00  0.00    +0.253 C 
ATOM     26  O1  UNL     1     -73.093  62.166 -10.950  0.00  0.00    -0.468 OA
ENDBRANCH   1  26
BRANCH   6  27
ATOM     27  O3  UNL     1     -71.261  63.996 -11.847  0.00  0.00    -0.472 OA
BRANCH  27  28
ATOM     28  C23 UNL     1     -72.329  64.808 -12.333  0.00  0.00    +0.206 C 
BRANCH  28  29
ATOM     29  C24 UNL     1     -72.438  64.677 -13.852  0.00  0.00    +0.051 C 
BRANCH  29  30
ATOM     30  C25 UNL     1     -73.610  63.766 -14.246  0.00  0.00    +0.051 C 
BRANCH  30  31
ATOM     31  C26 UNL     1     -74.657  63.692 -13.128  0.00  0.00    +0.206 C 
BRANCH  31  32
ATOM     32  O4  UNL     1     -75.290  62.411 -13.115  0.00  0.00    -0.475 OA
BRANCH  32  33
ATOM     33  C27 UNL     1     -76.274  61.999 -12.199  0.00  0.00    +0.139 A 
ATOM     34  C28 UNL     1     -77.471  61.367 -12.592  0.00  0.00    +0.037 A 
ATOM     35  C29 UNL     1     -78.428  61.010 -11.637  0.00  0.00    +0.006 A 
ATOM     36  C30 UNL     1     -78.202  61.260 -10.274  0.00  0.00    +0.040 A 
ATOM     37  C32 UNL     1     -77.001  61.877  -9.884  0.00  0.00    +0.006 A 
ATOM     38  C33 UNL     1     -76.049  62.242 -10.839  0.00  0.00    +0.037 A 
BRANCH  36  39
ATOM     39  C31 UNL     1     -79.212  60.878  -9.263  0.00  0.00    +0.208 A 
ATOM     40  N3  UNL     1     -79.600  61.646  -8.224  0.00  0.00    -0.106 NA
ATOM     41  N4  UNL     1     -80.499  60.934  -7.567  0.00  0.00    -0.021 NA
ATOM     42  N5  UNL     1     -80.672  59.772  -8.171  0.00  0.00    -0.021 NA
ATOM     43  N6  UNL     1     -79.884  59.706  -9.230  0.00  0.00    -0.106 NA
ENDBRANCH  36  39
ENDBRANCH  32  33
ENDBRANCH  31  32
ENDBRANCH  30  31
ENDBRANCH  29  30
ENDBRANCH  28  29
ENDBRANCH  27  28
ENDBRANCH   6  27
TORSDOF 11
ENDMDL
MODEL 2
REMARK VINA RESULT:      -9.4      5.372      7.643
REMARK  Name = ./data/4wxx_site2_bc02/pdb/l1c2.pdb
REMARK  11 active torsions:
REMARK  status: ('A' for Active; 'I' for Inactive)
REMARK    1  A    between atoms: O1_2  and  C2_3
REMARK    2  A    between atoms: C5_6  and  C6_7
REMARK    3  A    between atoms: N2_9  and  C7_10
REMARK    4  A    between atoms: C22_26  and  O3_27
REMARK    5  A    between atoms: O3_27  and  C23_28
REMARK    6  A    between atoms: C23_28  and  C24_29
REMARK    7  A    between atoms: C24_29  and  C25_30
REMARK    8  A    between atoms: C25_30  and  C26_31
REMARK    9  A    between atoms: C26_31  and  O4_32
REMARK   10  A    between atoms: O4_32  and  C27_33
REMARK   11  A    between atoms: C30_36  and  C31_37
REMARK                            x       y       z     vdW  Elec       q    Type
REMARK                         _______ _______ _______ _____ _____    ______ ____
ROOT
ATOM      1  C2  UNL     1     -72.626  62.179 -11.819  0.00  0.00    +0.172 A 
ATOM      2  C3  UNL     1     -72.276  60.827 -12.003  0.00  0.00    +0.040 A 
ATOM      3  C4  UNL     1     -71.189  60.480 -12.807  0.00  0.00    +0.005 A 
ATOM      4  C5  UNL     1     -70.423  61.477 -13.427  0.00  0.00    +0.018 A 
ATOM      5  C21 UNL     1     -70.792  62.822 -13.277  0.00  0.00    +0.041 A 
ATOM      6  C22 UNL     1     -71.881  63.183 -12.460  0.00  0.00    +0.172 A 
ENDROOT
BRANCH   4   7
ATOM      7  C6  UNL     1     -69.248  61.141 -14.252  0.00  0.00    +0.079 C 
ATOM      8  N1  UNL     1     -68.187  60.698 -13.643  0.00  0.00    -0.172 NA
ATOM      9  N2  UNL     1     -67.071  60.147 -14.318  0.00  0.00    -0.222 N 
ATOM     10  C14 UNL     1     -66.947  60.294 -15.622  0.00  0.00    +0.253 C 
ATOM     11  O2  UNL     1     -65.871  59.736 -16.315  0.00  0.00    -0.271 OA
ATOM     12  C15 UNL     1     -67.964  61.106 -16.387  0.00  0.00    +0.091 C 
ATOM     13  C16 UNL     1     -67.544  62.589 -16.397  0.00  0.00    +0.035 C 
ATOM     14  C17 UNL     1     -68.653  63.518 -16.811  0.00  0.00    -0.030 C 
ATOM     15  C18 UNL     1     -69.947  63.177 -16.749  0.00  0.00    -0.030 C 
ATOM     16  C19 UNL     1     -70.402  61.765 -16.495  0.00  0.00    +0.032 C 
ATOM     17  C20 UNL     1     -69.351  60.916 -15.750  0.00  0.00    +0.056 C 
BRANCH   9  18
ATOM     18  C7  UNL     1     -66.133  59.350 -13.501  0.00  0.00    +0.108 C 
ATOM     19  C8  UNL     1     -66.405  57.836 -13.646  0.00  0.00    +0.024 C 
ATOM     20  C9  UNL     1     -65.404  56.954 -12.878  0.00  0.00    +0.002 C 
ATOM     21  C10 UNL     1     -65.678  56.950 -11.364  0.00  0.00    +0.000 C 
ATOM     22  C11 UNL     1     -64.958  58.064 -10.577  0.00  0.00    +0.000 C 
ATOM     23  C12 UNL     1     -64.843  59.429 -11.281  0.00  0.00    +0.002 C 
ATOM     24  C13 UNL     1     -66.114  59.858 -12.038  0.00  0.00    +0.024 C 
ENDBRANCH   9  18
ENDBRANCH   4   7
BRANCH   1  26
ATOM     25  C1  UNL     1     -74.635  61.663 -10.418  0.00  0.00    +0.253 C 
ATOM     26  O1  UNL     1     -73.699  62.567 -11.000  0.00  0.00    -0.468 OA
ENDBRANCH   1  26
BRANCH   6  27
ATOM     27  O3  UNL     1     -72.242  64.525 -12.246  0.00  0.00    -0.472 OA
BRANCH  27  28
ATOM     28  C23 UNL     1     -71.603  65.404 -11.321  0.00  0.00    +0.206 C 
BRANCH  28  29
ATOM     29  C24 UNL     1     -70.908  64.596 -10.226  0.00  0.00    +0.051 C 
BRANCH  29  30
ATOM     30  C25 UNL     1     -69.920  65.469  -9.438  0.00  0.00    +0.051 C 
BRANCH  30  31
ATOM     31  C26 UNL     1     -70.621  66.685  -8.822  0.00  0.00    +0.206 C 
BRANCH  31  32
ATOM     32  O4  UNL     1     -69.662  67.652  -8.387  0.00  0.00    -0.475 OA
BRANCH  32  33
ATOM     33  C27 UNL     1     -68.756  67.478  -7.325  0.00  0.00    +0.139 A 
ATOM     34  C28 UNL     1     -67.361  67.615  -7.476  0.00  0.00    +0.037 A 
ATOM     35  C29 UNL     1     -66.508  67.397  -6.391  0.00  0.00    +0.006 A 
ATOM     36  C30 UNL     1     -67.029  67.057  -5.132  0.00  0.00    +0.040 A 
ATOM     37  C32 UNL     1     -68.420  66.936  -4.981  0.00  0.00    +0.006 A 
ATOM     38  C33 UNL     1     -69.273  67.144  -6.067  0.00  0.00    +0.037 A 
BRANCH  36  39
ATOM     39  C31 UNL     1     -66.126  66.831  -3.983  0.00  0.00    +0.208 A 
ATOM     40  N3  UNL     1     -65.748  65.622  -3.518  0.00  0.00    -0.106 NA
ATOM     41  N4  UNL     1     -64.958  65.865  -2.486  0.00  0.00    -0.021 NA
ATOM     42  N5  UNL     1     -64.841  67.170  -2.314  0.00  0.00    -0.021 NA
ATOM     43  N6  UNL     1     -65.558  67.800  -3.230  0.00  0.00    -0.106 NA
ENDBRANCH  36  39
ENDBRANCH  32  33
ENDBRANCH  31  32
ENDBRANCH  30  31
ENDBRANCH  29  30
ENDBRANCH  28  29
ENDBRANCH  27  28
ENDBRANCH   6  27
TORSDOF 11
ENDMDL
MODEL 3
REMARK VINA RESULT:      -9.2      1.554      2.380
REMARK  Name = ./data/4wxx_site2_bc02/pdb/l1c2.pdb
REMARK  11 active torsions:
REMARK  status: ('A' for Active; 'I' for Inactive)
REMARK    1  A    between atoms: O1_2  and  C2_3
REMARK    2  A    between atoms: C5_6  and  C6_7
REMARK    3  A    between atoms: N2_9  and  C7_10
REMARK    4  A    between atoms: C22_26  and  O3_27
REMARK    5  A    between atoms: O3_27  and  C23_28
REMARK    6  A    between atoms: C23_28  and  C24_29
REMARK    7  A    between atoms: C24_29  and  C25_30
REMARK    8  A    between atoms: C25_30  and  C26_31
REMARK    9  A    between atoms: C26_31  and  O4_32
REMARK   10  A    between atoms: O4_32  and  C27_33
REMARK   11  A    between atoms: C30_36  and  C31_37
REMARK                            x       y       z     vdW  Elec       q    Type
REMARK                         _______ _______ _______ _____ _____    ______ ____
ROOT
ATOM      1  C2  UNL     1     -71.251  64.057 -12.868  0.00  0.00    +0.172 A 
ATOM      2  C3  UNL     1     -69.868  64.196 -12.635  0.00  0.00    +0.040 A 
ATOM      3  C4  UNL     1     -68.952  63.383 -13.306  0.00  0.00    +0.005 A 
ATOM      4  C5  UNL     1     -69.399  62.433 -14.233  0.00  0.00    +0.018 A 
ATOM      5  C21 UNL     1     -70.777  62.266 -14.440  0.00  0.00    +0.041 A 
ATOM      6  C22 UNL     1     -71.709  63.087 -13.775  0.00  0.00    +0.172 A 
ENDROOT
BRANCH   4   7
ATOM      7  C6  UNL     1     -68.453  61.587 -14.984  0.00  0.00    +0.079 C 
ATOM      8  N1  UNL     1     -67.507  60.994 -14.314  0.00  0.00    -0.172 NA
ATOM      9  N2  UNL     1     -66.665  60.000 -14.866  0.00  0.00    -0.222 N 
ATOM     10  C14 UNL     1     -66.631  59.808 -16.170  0.00  0.00    +0.253 C 
ATOM     11  O2  UNL     1     -65.830  58.815 -16.736  0.00  0.00    -0.271 OA
ATOM     12  C15 UNL     1     -67.445  60.695 -17.081  0.00  0.00    +0.091 C 
ATOM     13  C16 UNL     1     -66.625  61.944 -17.460  0.00  0.00    +0.035 C 
ATOM     14  C17 UNL     1     -67.459  63.045 -18.057  0.00  0.00    -0.030 C 
ATOM     15  C18 UNL     1     -68.785  63.128 -17.879  0.00  0.00    -0.030 C 
ATOM     16  C19 UNL     1     -69.594  62.010 -17.280  0.00  0.00    +0.032 C 
ATOM     17  C20 UNL     1     -68.761  61.075 -16.380  0.00  0.00    +0.056 C 
BRANCH   9  18
ATOM     18  C7  UNL     1     -65.917  59.161 -13.906  0.00  0.00    +0.108 C 
ATOM     19  C8  UNL     1     -66.365  57.685 -13.978  0.00  0.00    +0.024 C 
ATOM     20  C9  UNL     1     -65.562  56.752 -13.055  0.00  0.00    +0.002 C 
ATOM     21  C10 UNL     1     -65.974  56.900 -11.579  0.00  0.00    +0.000 C 
ATOM     22  C11 UNL     1     -65.195  57.977 -10.798  0.00  0.00    +0.000 C 
ATOM     23  C12 UNL     1     -64.841  59.258 -11.576  0.00  0.00    +0.002 C 
ATOM     24  C13 UNL     1     -65.970  59.777 -12.486  0.00  0.00    +0.024 C 
ENDBRANCH   9  18
ENDBRANCH   4   7
BRANCH   1  26
ATOM     25  C1  UNL     1     -72.067  65.369 -10.899  0.00  0.00    +0.253 C 
ATOM     26  O1  UNL     1     -72.200  64.870 -12.228  0.00  0.00    -0.468 OA
ENDBRANCH   1  26
BRANCH   6  27
ATOM     27  O3  UNL     1     -73.092  62.981 -14.001  0.00  0.00    -0.472 OA
BRANCH  27  28
ATOM     28  C23 UNL     1     -73.987  62.185 -13.225  0.00  0.00    +0.206 C 
BRANCH  28  29
ATOM     29  C24 UNL     1     -73.365  61.874 -11.864  0.00  0.00    +0.051 C 
BRANCH  29  30
ATOM     30  C25 UNL     1     -72.606  60.539 -11.895  0.00  0.00    +0.051 C 
BRANCH  30  31
ATOM     31  C26 UNL     1     -73.372  59.445 -11.141  0.00  0.00    +0.206 C 
BRANCH  31  32
ATOM     32  O4  UNL     1     -74.709  59.336 -11.634  0.00  0.00    -0.475 OA
BRANCH  32  33
ATOM     33  C27 UNL     1     -75.871  59.665 -10.913  0.00  0.00    +0.139 A 
ATOM     34  C28 UNL     1     -76.118  59.204  -9.604  0.00  0.00    +0.037 A 
ATOM     35  C29 UNL     1     -77.307  59.538  -8.950  0.00  0.00    +0.006 A 
ATOM     36  C30 UNL     1     -78.263  60.349  -9.581  0.00  0.00    +0.040 A 
ATOM     37  C32 UNL     1     -78.008  60.819 -10.880  0.00  0.00    +0.006 A 
ATOM     38  C33 UNL     1     -76.823  60.479 -11.538  0.00  0.00    +0.037 A 
BRANCH  36  39
ATOM     39  C31 UNL     1     -79.520  60.707  -8.887  0.00  0.00    +0.208 A 
ATOM     40  N3  UNL     1     -79.711  61.823  -8.153  0.00  0.00    -0.106 NA
ATOM     41  N4  UNL     1     -80.952  61.750  -7.705  0.00  0.00    -0.021 NA
ATOM     42  N5  UNL     1     -81.517  60.638  -8.142  0.00  0.00    -0.021 NA
ATOM     43  N6  UNL     1     -80.650  59.966  -8.880  0.00  0.00    -0.106 NA
ENDBRANCH  36  39
ENDBRANCH  32  33
ENDBRANCH  31  32
ENDBRANCH  30  31
ENDBRANCH  29  30
ENDBRANCH  28  29
ENDBRANCH  27  28
ENDBRANCH   6  27
TORSDOF 11
ENDMDL
MODEL 4
REMARK VINA RESULT:      -8.9      2.025      3.168
REMARK  Name = ./data/4wxx_site2_bc02/pdb/l1c2.pdb
REMARK  11 active torsions:
REMARK  status: ('A' for Active; 'I' for Inactive)
REMARK    1  A    between atoms: O1_2  and  C2_3
REMARK    2  A    between atoms: C5_6  and  C6_7
REMARK    3  A    between atoms: N2_9  and  C7_10
REMARK    4  A    between atoms: C22_26  and  O3_27
REMARK    5  A    between atoms: O3_27  and  C23_28
REMARK    6  A    between atoms: C23_28  and  C24_29
REMARK    7  A    between atoms: C24_29  and  C25_30
REMARK    8  A    between atoms: C25_30  and  C26_31
REMARK    9  A    between atoms: C26_31  and  O4_32
REMARK   10  A    between atoms: O4_32  and  C27_33
REMARK   11  A    between atoms: C30_36  and  C31_37
REMARK                            x       y       z     vdW  Elec       q    Type
REMARK                         _______ _______ _______ _____ _____    ______ ____
ROOT
ATOM      1  C2  UNL     1     -72.163  62.493 -11.636  0.00  0.00    +0.172 A 
ATOM      2  C3  UNL     1     -71.218  63.377 -12.193  0.00  0.00    +0.040 A 
ATOM      3  C4  UNL     1     -70.160  62.889 -12.962  0.00  0.00    +0.005 A 
ATOM      4  C5  UNL     1     -70.038  61.514 -13.203  0.00  0.00    +0.018 A 
ATOM      5  C21 UNL     1     -70.956  60.628 -12.618  0.00  0.00    +0.041 A 
ATOM      6  C22 UNL     1     -72.032  61.111 -11.849  0.00  0.00    +0.172 A 
ENDROOT
BRANCH   4   7
ATOM      7  C6  UNL     1     -68.952  60.974 -14.042  0.00  0.00    +0.079 C 
ATOM      8  N1  UNL     1     -67.934  60.431 -13.439  0.00  0.00    -0.172 NA
ATOM      9  N2  UNL     1     -66.930  59.696 -14.113  0.00  0.00    -0.222 N 
ATOM     10  C14 UNL     1     -66.841  59.743 -15.427  0.00  0.00    +0.253 C 
ATOM     11  O2  UNL     1     -65.878  59.004 -16.116  0.00  0.00    -0.271 OA
ATOM     12  C15 UNL     1     -67.775  60.634 -16.211  0.00  0.00    +0.091 C 
ATOM     13  C16 UNL     1     -67.165  62.044 -16.335  0.00  0.00    +0.035 C 
ATOM     14  C17 UNL     1     -68.158  63.086 -16.774  0.00  0.00    -0.030 C 
ATOM     15  C18 UNL     1     -69.482  62.925 -16.645  0.00  0.00    -0.030 C 
ATOM     16  C19 UNL     1     -70.107  61.605 -16.283  0.00  0.00    +0.032 C 
ATOM     17  C20 UNL     1     -69.147  60.671 -15.517  0.00  0.00    +0.056 C 
BRANCH   9  18
ATOM     18  C7  UNL     1     -66.071  58.832 -13.275  0.00  0.00    +0.108 C 
ATOM     19  C8  UNL     1     -66.334  57.335 -13.553  0.00  0.00    +0.024 C 
ATOM     20  C9  UNL     1     -65.409  56.391 -12.765  0.00  0.00    +0.002 C 
ATOM     21  C10 UNL     1     -65.817  56.281 -11.285  0.00  0.00    +0.000 C 
ATOM     22  C11 UNL     1     -65.167  57.328 -10.359  0.00  0.00    +0.000 C 
ATOM     23  C12 UNL     1     -64.984  58.739 -10.950  0.00  0.00    +0.002 C 
ATOM     24  C13 UNL     1     -66.181  59.234 -11.784  0.00  0.00    +0.024 C 
ENDBRANCH   9  18
ENDBRANCH   4   7
BRANCH   1  26
ATOM     25  C1  UNL     1     -74.239  63.862 -11.349  0.00  0.00    +0.253 C 
ATOM     26  O1  UNL     1     -73.253  62.949 -10.875  0.00  0.00    -0.468 OA
ENDBRANCH   1  26
BRANCH   6  27
ATOM     27  O3  UNL     1     -72.998  60.253 -11.295  0.00  0.00    -0.472 OA
BRANCH  27  28
ATOM     28  C23 UNL     1     -74.395  60.304 -11.584  0.00  0.00    +0.206 C 
BRANCH  28  29
ATOM     29  C24 UNL     1     -75.095  59.075 -11.003  0.00  0.00    +0.051 C 
BRANCH  29  30
ATOM     30  C25 UNL     1     -75.690  59.380  -9.621  0.00  0.00    +0.051 C 
BRANCH  30  31
ATOM     31  C26 UNL     1     -76.121  60.847  -9.511  0.00  0.00    +0.206 C 
BRANCH  31  32
ATOM     32  O4  UNL     1     -77.241  60.979  -8.634  0.00  0.00    -0.475 OA
BRANCH  32  33
ATOM     33  C27 UNL     1     -78.589  60.832  -9.008  0.00  0.00    +0.139 A 
ATOM     34  C28 UNL     1     -79.638  60.732  -8.072  0.00  0.00    +0.037 A 
ATOM     35  C29 UNL     1     -80.956  60.554  -8.504  0.00  0.00    +0.006 A 
ATOM     36  C30 UNL     1     -81.254  60.491  -9.874  0.00  0.00    +0.040 A 
ATOM     37  C32 UNL     1     -80.208  60.607 -10.805  0.00  0.00    +0.006 A 
ATOM     38  C33 UNL     1     -78.890  60.776 -10.374  0.00  0.00    +0.037 A 
BRANCH  36  39
ATOM     39  C31 UNL     1     -82.649  60.309 -10.331  0.00  0.00    +0.208 A 
ATOM     40  N3  UNL     1     -83.158  59.164 -10.833  0.00  0.00    -0.106 NA
ATOM     41  N4  UNL     1     -84.419  59.430 -11.125  0.00  0.00    -0.021 NA
ATOM     42  N5  UNL     1     -84.691  60.685 -10.816  0.00  0.00    -0.021 NA
ATOM     43  N6  UNL     1     -83.609  61.260 -10.320  0.00  0.00    -0.106 NA
ENDBRANCH  36  39
ENDBRANCH  32  33
ENDBRANCH  31  32
ENDBRANCH  30  31
ENDBRANCH  29  30
ENDBRANCH  28  29
ENDBRANCH  27  28
ENDBRANCH   6  27
TORSDOF 11
ENDMDL
MODEL 5
REMARK VINA RESULT:      -7.4      3.333      5.891
REMARK  Name = ./data/4wxx_site2_bc02/pdb/l1c2.pdb
REMARK  11 active torsions:
REMARK  status: ('A' for Active; 'I' for Inactive)
REMARK    1  A    between atoms: O1_2  and  C2_3
REMARK    2  A    between atoms: C5_6  and  C6_7
REMARK    3  A    between atoms: N2_9  and  C7_10
REMARK    4  A    between atoms: C22_26  and  O3_27
REMARK    5  A    between atoms: O3_27  and  C23_28
REMARK    6  A    between atoms: C23_28  and  C24_29
REMARK    7  A    between atoms: C24_29  and  C25_30
REMARK    8  A    between atoms: C25_30  and  C26_31
REMARK    9  A    between atoms: C26_31  and  O4_32
REMARK   10  A    between atoms: O4_32  and  C27_33
REMARK   11  A    between atoms: C30_36  and  C31_37
REMARK                            x       y       z     vdW  Elec       q    Type
REMARK                         _______ _______ _______ _____ _____    ______ ____
ROOT
ATOM      1  C2  UNL     1     -76.650  62.044 -12.283  0.00  0.00    +0.172 A 
ATOM      2  C3  UNL     1     -76.260  63.307 -12.771  0.00  0.00    +0.040 A 
ATOM      3  C4  UNL     1     -74.911  63.597 -12.986  0.00  0.00    +0.005 A 
ATOM      4  C5  UNL     1     -73.932  62.627 -12.735  0.00  0.00    +0.018 A 
ATOM      5  C21 UNL     1     -74.314  61.381 -12.213  0.00  0.00    +0.041 A 
ATOM      6  C22 UNL     1     -75.672  61.076 -12.002  0.00  0.00    +0.172 A 
ENDROOT
BRANCH   4   7
ATOM      7  C6  UNL     1     -72.504  62.893 -12.987  0.00  0.00    +0.079 C 
ATOM      8  N1  UNL     1     -71.814  61.970 -13.593  0.00  0.00    -0.172 NA
ATOM      9  N2  UNL     1     -70.500  62.171 -14.080  0.00  0.00    -0.222 N 
ATOM     10  C14 UNL     1     -69.812  63.233 -13.713  0.00  0.00    +0.253 C 
ATOM     11  O2  UNL     1     -68.525  63.468 -14.202  0.00  0.00    -0.271 OA
ATOM     12  C15 UNL     1     -70.403  64.205 -12.721  0.00  0.00    +0.091 C 
ATOM     13  C16 UNL     1     -70.062  63.755 -11.286  0.00  0.00    +0.035 C 
ATOM     14  C17 UNL     1     -70.894  64.438 -10.235  0.00  0.00    -0.030 C 
ATOM     15  C18 UNL     1     -72.072  65.019 -10.506  0.00  0.00    -0.030 C 
ATOM     16  C19 UNL     1     -72.553  65.258 -11.911  0.00  0.00    +0.032 C 
ATOM     17  C20 UNL     1     -71.923  64.295 -12.939  0.00  0.00    +0.056 C 
BRANCH   9  18
ATOM     18  C7  UNL     1     -70.004  61.185 -15.064  0.00  0.00    +0.108 C 
ATOM     19  C8  UNL     1     -68.673  60.550 -14.603  0.00  0.00    +0.024 C 
ATOM     20  C9  UNL     1     -68.152  59.457 -15.552  0.00  0.00    +0.002 C 
ATOM     21  C10 UNL     1     -67.533  60.046 -16.832  0.00  0.00    +0.000 C 
ATOM     22  C11 UNL     1     -68.529  60.262 -17.988  0.00  0.00    +0.000 C 
ATOM     23  C12 UNL     1     -69.940  60.734 -17.591  0.00  0.00    +0.002 C 
ATOM     24  C13 UNL     1     -69.960  61.803 -16.483  0.00  0.00    +0.024 C 
ENDBRANCH   9  18
ENDBRANCH   4   7
BRANCH   1  26
ATOM     25  C1  UNL     1     -78.958  61.551 -13.118  0.00  0.00    +0.253 C 
ATOM     26  O1  UNL     1     -77.998  61.709 -12.076  0.00  0.00    -0.468 OA
ENDBRANCH   1  26
BRANCH   6  27
ATOM     27  O3  UNL     1     -76.091  59.818 -11.533  0.00  0.00    -0.472 OA
BRANCH  27  28
ATOM     28  C23 UNL     1     -75.376  59.021 -10.589  0.00  0.00    +0.206 C 
BRANCH  28  29
ATOM     29  C24 UNL     1     -76.034  59.123  -9.213  0.00  0.00    +0.051 C 
BRANCH  29  30
ATOM     30  C25 UNL     1     -75.822  60.515  -8.600  0.00  0.00    +0.051 C 
BRANCH  30  31
ATOM     31  C26 UNL     1     -77.087  61.374  -8.720  0.00  0.00    +0.206 C 
BRANCH  31  32
ATOM     32  O4  UNL     1     -78.212  60.695  -8.159  0.00  0.00    -0.475 OA
BRANCH  32  33
ATOM     33  C27 UNL     1     -79.518  60.716  -8.682  0.00  0.00    +0.139 A 
ATOM     34  C28 UNL     1     -80.572  61.435  -8.083  0.00  0.00    +0.037 A 
ATOM     35  C29 UNL     1     -81.858  61.391  -8.631  0.00  0.00    +0.006 A 
ATOM     36  C30 UNL     1     -82.111  60.645  -9.794  0.00  0.00    +0.040 A 
ATOM     37  C32 UNL     1     -81.055  59.942 -10.396  0.00  0.00    +0.006 A 
ATOM     38  C33 UNL     1     -79.772  59.978  -9.845  0.00  0.00    +0.037 A 
BRANCH  36  39
ATOM     39  C31 UNL     1     -83.470  60.603 -10.376  0.00  0.00    +0.208 A 
ATOM     40  N3  UNL     1     -84.324  61.647 -10.432  0.00  0.00    -0.106 NA
ATOM     41  N4  UNL     1     -85.418  61.185 -11.011  0.00  0.00    -0.021 NA
ATOM     42  N5  UNL     1     -85.257  59.909 -11.310  0.00  0.00    -0.021 NA
ATOM     43  N6  UNL     1     -84.054  59.515 -10.927  0.00  0.00    -0.106 NA
ENDBRANCH  36  39
ENDBRANCH  32  33
ENDBRANCH  31  32
ENDBRANCH  30  31
ENDBRANCH  29  30
ENDBRANCH  28  29
ENDBRANCH  27  28
ENDBRANCH   6  27
TORSDOF 11
ENDMDL
