MODEL 1
REMARK VINA RESULT:      -9.7      0.000      0.000
REMARK  Name = ./data/4wxx_site2_bc02/pdb/l1c1.pdb
REMARK  11 active torsions:
REMARK  status: ('A' for Active; 'I' for Inactive)
REMARK    1  A    between atoms: O1_2  and  C2_3
REMARK    2  A    between atoms: C5_6  and  C6_7
REMARK    3  A    between atoms: N2_9  and  C7_10
REMARK    4  A    between atoms: C22_26  and  O3_27
REMARK    5  A    between atoms: O3_27  and  C23_28
REMARK    6  A    between atoms: C23_28  and  C24_29
REMARK    7  A    between atoms: C24_29  and  C25_30
REMARK    8  A    between atoms: C25_30  and  C26_31
REMARK    9  A    between atoms: C26_31  and  O4_32
REMARK   10  A    between atoms: O4_32  and  C27_33
REMARK   11  A    between atoms: C30_36  and  C31_37
REMARK                            x       y       z     vdW  Elec       q    Type
REMARK                         _______ _______ _______ _____ _____    ______ ____
ROOT
ATOM      1  C2  UNL     1     -70.534  62.845 -14.616  0.00  0.00    +0.172 A 
ATOM      2  C3  UNL     1     -70.147  62.495 -15.922  0.00  0.00    +0.040 A 
ATOM      3  C4  UNL     1     -69.227  61.469 -16.139  0.00  0.00    +0.005 A 
ATOM      4  C5  UNL     1     -68.677  60.754 -15.059  0.00  0.00    +0.018 A 
ATOM      5  C21 UNL     1     -69.082  61.098 -13.753  0.00  0.00    +0.041 A 
ATOM      6  C22 UNL     1     -69.992  62.149 -13.526  0.00  0.00    +0.172 A 
ENDROOT
BRANCH   4   7
ATOM      7  C6  UNL     1     -67.673  59.664 -15.263  0.00  0.00    +0.079 C 
ATOM      8  N1  UNL     1     -67.237  59.028 -14.219  0.00  0.00    -0.172 NA
ATOM      9  N2  UNL     1     -66.260  58.014 -14.235  0.00  0.00    -0.222 N 
ATOM     10  C14 UNL     1     -65.817  57.512 -15.364  0.00  0.00    +0.253 C 
ATOM     11  O2  UNL     1     -64.930  56.431 -15.340  0.00  0.00    -0.271 OA
ATOM     12  C15 UNL     1     -66.295  58.034 -16.709  0.00  0.00    +0.091 C 
ATOM     13  C16 UNL     1     -65.106  58.067 -17.725  0.00  0.00    +0.035 C 
ATOM     14  C17 UNL     1     -65.237  59.137 -18.775  0.00  0.00    -0.030 C 
ATOM     15  C18 UNL     1     -65.677  60.352 -18.433  0.00  0.00    -0.030 C 
ATOM     16  C19 UNL     1     -66.164  60.585 -17.034  0.00  0.00    +0.032 C 
ATOM     17  C20 UNL     1     -67.058  59.398 -16.618  0.00  0.00    +0.056 C 
BRANCH   9  18
ATOM     18  C7  UNL     1     -65.827  57.514 -12.911  0.00  0.00    +0.108 C 
ATOM     19  C8  UNL     1     -65.718  58.676 -11.898  0.00  0.00    +0.024 C 
ATOM     20  C9  UNL     1     -64.847  58.347 -10.679  0.00  0.00    +0.002 C 
ATOM     21  C10 UNL     1     -65.348  57.138  -9.873  0.00  0.00    +0.000 C 
ATOM     22  C11 UNL     1     -65.003  55.801 -10.551  0.00  0.00    +0.000 C 
ATOM     23  C12 UNL     1     -66.047  55.304 -11.569  0.00  0.00    +0.002 C 
ATOM     24  C13 UNL     1     -66.758  56.383 -12.407  0.00  0.00    +0.024 C 
ENDBRANCH   9  18
ENDBRANCH   4   7
BRANCH   1  26
ATOM     25  C1  UNL     1     -72.813  63.865 -14.778  0.00  0.00    +0.253 C 
ATOM     26  O1  UNL     1     -71.453  63.876 -14.360  0.00  0.00    -0.468 OA
ENDBRANCH   1  26
BRANCH   6  27
ATOM     27  O3  UNL     1     -70.377  62.537 -12.233  0.00  0.00    -0.472 OA
BRANCH  27  28
ATOM     28  C23 UNL     1     -71.658  62.289 -11.659  0.00  0.00    +0.206 C 
BRANCH  28  29
ATOM     29  C24 UNL     1     -72.356  61.149 -12.403  0.00  0.00    +0.051 C 
BRANCH  29  30
ATOM     30  C25 UNL     1     -72.183  59.814 -11.662  0.00  0.00    +0.051 C 
BRANCH  30  31
ATOM     31  C26 UNL     1     -73.528  59.144 -11.386  0.00  0.00    +0.206 C 
BRANCH  31  32
ATOM     32  O4  UNL     1     -74.597  59.973 -11.836  0.00  0.00    -0.475 OA
BRANCH  32  33
ATOM     33  C27 UNL     1     -75.784  60.186 -11.118  0.00  0.00    +0.139 A 
ATOM     34  C28 UNL     1     -76.881  60.879 -11.663  0.00  0.00    +0.037 A 
ATOM     35  C29 UNL     1     -78.045  61.062 -10.912  0.00  0.00    +0.006 A 
ATOM     36  C30 UNL     1     -78.143  60.553  -9.604  0.00  0.00    +0.040 A 
ATOM     37  C32 UNL     1     -77.042  59.863  -9.065  0.00  0.00    +0.006 A 
ATOM     38  C33 UNL     1     -75.875  59.687  -9.815  0.00  0.00    +0.037 A 
BRANCH  36  39
ATOM     39  C31 UNL     1     -79.389  60.737  -8.812  0.00  0.00    +0.208 A 
ATOM     40  N3  UNL     1     -80.388  59.832  -8.708  0.00  0.00    -0.106 NA
ATOM     41  N4  UNL     1     -81.288  60.380  -7.909  0.00  0.00    -0.021 NA
ATOM     42  N5  UNL     1     -80.874  61.576  -7.530  0.00  0.00    -0.021 NA
ATOM     43  N6  UNL     1     -79.695  61.828  -8.074  0.00  0.00    -0.106 NA
ENDBRANCH  36  39
ENDBRANCH  32  33
ENDBRANCH  31  32
ENDBRANCH  30  31
ENDBRANCH  29  30
ENDBRANCH  28  29
ENDBRANCH  27  28
ENDBRANCH   6  27
TORSDOF 11
ENDMDL
MODEL 2
REMARK VINA RESULT:      -9.2      1.183      1.639
REMARK  Name = ./data/4wxx_site2_bc02/pdb/l1c1.pdb
REMARK  11 active torsions:
REMARK  status: ('A' for Active; 'I' for Inactive)
REMARK    1  A    between atoms: O1_2  and  C2_3
REMARK    2  A    between atoms: C5_6  and  C6_7
REMARK    3  A    between atoms: N2_9  and  C7_10
REMARK    4  A    between atoms: C22_26  and  O3_27
REMARK    5  A    between atoms: O3_27  and  C23_28
REMARK    6  A    between atoms: C23_28  and  C24_29
REMARK    7  A    between atoms: C24_29  and  C25_30
REMARK    8  A    between atoms: C25_30  and  C26_31
REMARK    9  A    between atoms: C26_31  and  O4_32
REMARK   10  A    between atoms: O4_32  and  C27_33
REMARK   11  A    between atoms: C30_36  and  C31_37
REMARK                            x       y       z     vdW  Elec       q    Type
REMARK                         _______ _______ _______ _____ _____    ______ ____
ROOT
ATOM      1  C2  UNL     1     -71.636  63.641 -14.518  0.00  0.00    +0.172 A 
ATOM      2  C3  UNL     1     -71.448  63.181 -15.833  0.00  0.00    +0.040 A 
ATOM      3  C4  UNL     1     -70.334  62.406 -16.161  0.00  0.00    +0.005 A 
ATOM      4  C5  UNL     1     -69.386  62.057 -15.182  0.00  0.00    +0.018 A 
ATOM      5  C21 UNL     1     -69.590  62.507 -13.862  0.00  0.00    +0.041 A 
ATOM      6  C22 UNL     1     -70.699  63.310 -13.530  0.00  0.00    +0.172 A 
ENDROOT
BRANCH   4   7
ATOM      7  C6  UNL     1     -68.173  61.244 -15.511  0.00  0.00    +0.079 C 
ATOM      8  N1  UNL     1     -67.685  60.471 -14.591  0.00  0.00    -0.172 NA
ATOM      9  N2  UNL     1     -66.526  59.683 -14.724  0.00  0.00    -0.222 N 
ATOM     10  C14 UNL     1     -65.922  59.548 -15.881  0.00  0.00    +0.253 C 
ATOM     11  O2  UNL     1     -64.840  58.669 -16.000  0.00  0.00    -0.271 OA
ATOM     12  C15 UNL     1     -66.411  60.275 -17.123  0.00  0.00    +0.091 C 
ATOM     13  C16 UNL     1     -65.191  60.759 -17.975  0.00  0.00    +0.035 C 
ATOM     14  C17 UNL     1     -65.469  62.004 -18.775  0.00  0.00    -0.030 C 
ATOM     15  C18 UNL     1     -66.163  63.005 -18.225  0.00  0.00    -0.030 C 
ATOM     16  C19 UNL     1     -66.773  62.812 -16.869  0.00  0.00    +0.032 C 
ATOM     17  C20 UNL     1     -67.435  61.419 -16.819  0.00  0.00    +0.056 C 
BRANCH   9  18
ATOM     18  C7  UNL     1     -66.084  58.973 -13.502  0.00  0.00    +0.108 C 
ATOM     19  C8  UNL     1     -65.849  59.971 -12.346  0.00  0.00    +0.024 C 
ATOM     20  C9  UNL     1     -64.962  59.414 -11.225  0.00  0.00    +0.002 C 
ATOM     21  C10 UNL     1     -65.524  58.143 -10.570  0.00  0.00    +0.000 C 
ATOM     22  C11 UNL     1     -65.309  56.892 -11.440  0.00  0.00    +0.000 C 
ATOM     23  C12 UNL     1     -66.425  56.618 -12.466  0.00  0.00    +0.002 C 
ATOM     24  C13 UNL     1     -67.080  57.852 -13.114  0.00  0.00    +0.024 C 
ENDBRANCH   9  18
ENDBRANCH   4   7
BRANCH   1  26
ATOM     25  C1  UNL     1     -74.044  63.918 -13.894  0.00  0.00    +0.253 C 
ATOM     26  O1  UNL     1     -72.741  64.429 -14.154  0.00  0.00    -0.468 OA
ENDBRANCH   1  26
BRANCH   6  27
ATOM     27  O3  UNL     1     -70.900  63.806 -12.232  0.00  0.00    -0.472 OA
BRANCH  27  28
ATOM     28  C23 UNL     1     -71.554  63.093 -11.184  0.00  0.00    +0.206 C 
BRANCH  28  29
ATOM     29  C24 UNL     1     -72.567  62.108 -11.770  0.00  0.00    +0.051 C 
BRANCH  29  30
ATOM     30  C25 UNL     1     -72.004  60.680 -11.796  0.00  0.00    +0.051 C 
BRANCH  30  31
ATOM     31  C26 UNL     1     -73.043  59.655 -11.344  0.00  0.00    +0.206 C 
BRANCH  31  32
ATOM     32  O4  UNL     1     -74.321  59.971 -11.892  0.00  0.00    -0.475 OA
BRANCH  32  33
ATOM     33  C27 UNL     1     -75.496  60.087 -11.132  0.00  0.00    +0.139 A 
ATOM     34  C28 UNL     1     -75.935  59.071 -10.262  0.00  0.00    +0.037 A 
ATOM     35  C29 UNL     1     -77.109  59.233  -9.522  0.00  0.00    +0.006 A 
ATOM     36  C30 UNL     1     -77.867  60.414  -9.627  0.00  0.00    +0.040 A 
ATOM     37  C32 UNL     1     -77.424  61.425 -10.501  0.00  0.00    +0.006 A 
ATOM     38  C33 UNL     1     -76.252  61.257 -11.247  0.00  0.00    +0.037 A 
BRANCH  36  39
ATOM     39  C31 UNL     1     -79.109  60.590  -8.827  0.00  0.00    +0.208 A 
ATOM     40  N3  UNL     1     -79.993  59.610  -8.532  0.00  0.00    -0.106 NA
ATOM     41  N4  UNL     1     -80.933  60.183  -7.800  0.00  0.00    -0.021 NA
ATOM     42  N5  UNL     1     -80.653  61.464  -7.642  0.00  0.00    -0.021 NA
ATOM     43  N6  UNL     1     -79.523  61.750  -8.269  0.00  0.00    -0.106 NA
ENDBRANCH  36  39
ENDBRANCH  32  33
ENDBRANCH  31  32
ENDBRANCH  30  31
ENDBRANCH  29  30
ENDBRANCH  28  29
ENDBRANCH  27  28
ENDBRANCH   6  27
TORSDOF 11
ENDMDL
MODEL 3
REMARK VINA RESULT:      -9.1      5.919      8.009
REMARK  Name = ./data/4wxx_site2_bc02/pdb/l1c1.pdb
REMARK  11 active torsions:
REMARK  status: ('A' for Active; 'I' for Inactive)
REMARK    1  A    between atoms: O1_2  and  C2_3
REMARK    2  A    between atoms: C5_6  and  C6_7
REMARK    3  A    between atoms: N2_9  and  C7_10
REMARK    4  A    between atoms: C22_26  and  O3_27
REMARK    5  A    between atoms: O3_27  and  C23_28
REMARK    6  A    between atoms: C23_28  and  C24_29
REMARK    7  A    between atoms: C24_29  and  C25_30
REMARK    8  A    between atoms: C25_30  and  C26_31
REMARK    9  A    between atoms: C26_31  and  O4_32
REMARK   10  A    between atoms: O4_32  and  C27_33
REMARK   11  A    between atoms: C30_36  and  C31_37
REMARK                            x       y       z     vdW  Elec       q    Type
REMARK                         _______ _______ _______ _____ _____    ______ ____
ROOT
ATOM      1  C2  UNL     1     -73.852  61.307 -11.450  0.00  0.00    +0.172 A 
ATOM      2  C3  UNL     1     -73.265  60.033 -11.554  0.00  0.00    +0.040 A 
ATOM      3  C4  UNL     1     -72.120  59.840 -12.328  0.00  0.00    +0.005 A 
ATOM      4  C5  UNL     1     -71.520  60.916 -13.008  0.00  0.00    +0.018 A 
ATOM      5  C21 UNL     1     -72.103  62.193 -12.886  0.00  0.00    +0.041 A 
ATOM      6  C22 UNL     1     -73.273  62.390 -12.126  0.00  0.00    +0.172 A 
ENDROOT
BRANCH   4   7
ATOM      7  C6  UNL     1     -70.304  60.732 -13.860  0.00  0.00    +0.079 C 
ATOM      8  N1  UNL     1     -69.260  60.174 -13.328  0.00  0.00    -0.172 NA
ATOM      9  N2  UNL     1     -68.028  59.974 -13.978  0.00  0.00    -0.222 N 
ATOM     10  C14 UNL     1     -67.888  60.203 -15.262  0.00  0.00    +0.253 C 
ATOM     11  O2  UNL     1     -66.681  59.887 -15.895  0.00  0.00    -0.271 OA
ATOM     12  C15 UNL     1     -69.033  60.744 -16.103  0.00  0.00    +0.091 C 
ATOM     13  C16 UNL     1     -68.489  61.771 -17.151  0.00  0.00    +0.035 C 
ATOM     14  C17 UNL     1     -69.486  62.834 -17.529  0.00  0.00    -0.030 C 
ATOM     15  C18 UNL     1     -70.250  63.392 -16.586  0.00  0.00    -0.030 C 
ATOM     16  C19 UNL     1     -70.198  62.850 -15.189  0.00  0.00    +0.032 C 
ATOM     17  C20 UNL     1     -70.222  61.309 -15.256  0.00  0.00    +0.056 C 
BRANCH   9  18
ATOM     18  C7  UNL     1     -66.937  59.429 -13.138  0.00  0.00    +0.108 C 
ATOM     19  C8  UNL     1     -66.248  60.559 -12.339  0.00  0.00    +0.024 C 
ATOM     20  C9  UNL     1     -64.850  60.185 -11.829  0.00  0.00    +0.002 C 
ATOM     21  C10 UNL     1     -64.840  58.957 -10.906  0.00  0.00    +0.000 C 
ATOM     22  C11 UNL     1     -64.970  57.638 -11.687  0.00  0.00    +0.000 C 
ATOM     23  C12 UNL     1     -66.418  57.181 -11.950  0.00  0.00    +0.002 C 
ATOM     24  C13 UNL     1     -67.450  58.292 -12.220  0.00  0.00    +0.024 C 
ENDBRANCH   9  18
ENDBRANCH   4   7
BRANCH   1  26
ATOM     25  C1  UNL     1     -75.119  61.269  -9.292  0.00  0.00    +0.253 C 
ATOM     26  O1  UNL     1     -75.008  61.536 -10.686  0.00  0.00    -0.468 OA
ENDBRANCH   1  26
BRANCH   6  27
ATOM     27  O3  UNL     1     -73.895  63.644 -12.025  0.00  0.00    -0.472 OA
BRANCH  27  28
ATOM     28  C23 UNL     1     -73.207  64.879 -11.838  0.00  0.00    +0.206 C 
BRANCH  28  29
ATOM     29  C24 UNL     1     -72.376  64.829 -10.555  0.00  0.00    +0.051 C 
BRANCH  29  30
ATOM     30  C25 UNL     1     -70.880  65.011 -10.852  0.00  0.00    +0.051 C 
BRANCH  30  31
ATOM     31  C26 UNL     1     -70.081  65.285  -9.578  0.00  0.00    +0.206 C 
BRANCH  31  32
ATOM     32  O4  UNL     1     -70.288  66.627  -9.143  0.00  0.00    -0.475 OA
BRANCH  32  33
ATOM     33  C27 UNL     1     -69.642  67.204  -8.038  0.00  0.00    +0.139 A 
ATOM     34  C28 UNL     1     -70.085  68.401  -7.446  0.00  0.00    +0.037 A 
ATOM     35  C29 UNL     1     -69.414  68.936  -6.343  0.00  0.00    +0.006 A 
ATOM     36  C30 UNL     1     -68.290  68.284  -5.802  0.00  0.00    +0.040 A 
ATOM     37  C32 UNL     1     -67.851  67.088  -6.400  0.00  0.00    +0.006 A 
ATOM     38  C33 UNL     1     -68.520  66.559  -7.509  0.00  0.00    +0.037 A 
BRANCH  36  39
ATOM     39  C31 UNL     1     -67.586  68.848  -4.619  0.00  0.00    +0.208 A 
ATOM     40  N3  UNL     1     -66.245  68.968  -4.493  0.00  0.00    -0.106 NA
ATOM     41  N4  UNL     1     -66.043  69.523  -3.310  0.00  0.00    -0.021 NA
ATOM     42  N5  UNL     1     -67.205  69.740  -2.719  0.00  0.00    -0.021 NA
ATOM     43  N6  UNL     1     -68.185  69.332  -3.508  0.00  0.00    -0.106 NA
ENDBRANCH  36  39
ENDBRANCH  32  33
ENDBRANCH  31  32
ENDBRANCH  30  31
ENDBRANCH  29  30
ENDBRANCH  28  29
ENDBRANCH  27  28
ENDBRANCH   6  27
TORSDOF 11
ENDMDL
MODEL 4
REMARK VINA RESULT:      -8.0      2.090      3.382
REMARK  Name = ./data/4wxx_site2_bc02/pdb/l1c1.pdb
REMARK  11 active torsions:
REMARK  status: ('A' for Active; 'I' for Inactive)
REMARK    1  A    between atoms: O1_2  and  C2_3
REMARK    2  A    between atoms: C5_6  and  C6_7
REMARK    3  A    between atoms: N2_9  and  C7_10
REMARK    4  A    between atoms: C22_26  and  O3_27
REMARK    5  A    between atoms: O3_27  and  C23_28
REMARK    6  A    between atoms: C23_28  and  C24_29
REMARK    7  A    between atoms: C24_29  and  C25_30
REMARK    8  A    between atoms: C25_30  and  C26_31
REMARK    9  A    between atoms: C26_31  and  O4_32
REMARK   10  A    between atoms: O4_32  and  C27_33
REMARK   11  A    between atoms: C30_36  and  C31_37
REMARK                            x       y       z     vdW  Elec       q    Type
REMARK                         _______ _______ _______ _____ _____    ______ ____
ROOT
ATOM      1  C2  UNL     1     -73.008  62.427 -12.321  0.00  0.00    +0.172 A 
ATOM      2  C3  UNL     1     -72.333  63.213 -13.271  0.00  0.00    +0.040 A 
ATOM      3  C4  UNL     1     -71.191  62.729 -13.911  0.00  0.00    +0.005 A 
ATOM      4  C5  UNL     1     -70.698  61.441 -13.629  0.00  0.00    +0.018 A 
ATOM      5  C21 UNL     1     -71.389  60.652 -12.687  0.00  0.00    +0.041 A 
ATOM      6  C22 UNL     1     -72.528  61.144 -12.021  0.00  0.00    +0.172 A 
ENDROOT
BRANCH   4   7
ATOM      7  C6  UNL     1     -69.465  60.906 -14.285  0.00  0.00    +0.079 C 
ATOM      8  N1  UNL     1     -68.658  60.180 -13.574  0.00  0.00    -0.172 NA
ATOM      9  N2  UNL     1     -67.437  59.645 -14.026  0.00  0.00    -0.222 N 
ATOM     10  C14 UNL     1     -67.088  59.712 -15.290  0.00  0.00    +0.253 C 
ATOM     11  O2  UNL     1     -65.922  59.072 -15.722  0.00  0.00    -0.271 OA
ATOM     12  C15 UNL     1     -67.958  60.415 -16.318  0.00  0.00    +0.091 C 
ATOM     13  C16 UNL     1     -67.061  61.186 -17.342  0.00  0.00    +0.035 C 
ATOM     14  C17 UNL     1     -67.722  62.406 -17.926  0.00  0.00    -0.030 C 
ATOM     15  C18 UNL     1     -68.444  63.211 -17.141  0.00  0.00    -0.030 C 
ATOM     16  C19 UNL     1     -68.696  62.808 -15.718  0.00  0.00    +0.032 C 
ATOM     17  C20 UNL     1     -69.075  61.313 -15.688  0.00  0.00    +0.056 C 
BRANCH   9  18
ATOM     18  C7  UNL     1     -66.619  58.951 -13.005  0.00  0.00    +0.108 C 
ATOM     19  C8  UNL     1     -66.059  59.960 -11.977  0.00  0.00    +0.024 C 
ATOM     20  C9  UNL     1     -64.854  59.430 -11.191  0.00  0.00    +0.002 C 
ATOM     21  C10 UNL     1     -65.152  58.148 -10.396  0.00  0.00    +0.000 C 
ATOM     22  C11 UNL     1     -65.188  56.900 -11.294  0.00  0.00    +0.000 C 
ATOM     23  C12 UNL     1     -66.562  56.594 -11.923  0.00  0.00    +0.002 C 
ATOM     24  C13 UNL     1     -67.417  57.808 -12.330  0.00  0.00    +0.024 C 
ENDBRANCH   9  18
ENDBRANCH   4   7
BRANCH   1  26
ATOM     25  C1  UNL     1     -75.340  63.334 -12.302  0.00  0.00    +0.253 C 
ATOM     26  O1  UNL     1     -74.156  62.885 -11.653  0.00  0.00    -0.468 OA
ENDBRANCH   1  26
BRANCH   6  27
ATOM     27  O3  UNL     1     -73.207  60.393 -11.048  0.00  0.00    -0.472 OA
BRANCH  27  28
ATOM     28  C23 UNL     1     -73.886  59.164 -11.300  0.00  0.00    +0.206 C 
BRANCH  28  29
ATOM     29  C24 UNL     1     -75.350  59.274 -10.871  0.00  0.00    +0.051 C 
BRANCH  29  30
ATOM     30  C25 UNL     1     -75.474  59.890  -9.469  0.00  0.00    +0.051 C 
BRANCH  30  31
ATOM     31  C26 UNL     1     -76.234  61.215  -9.501  0.00  0.00    +0.206 C 
BRANCH  31  32
ATOM     32  O4  UNL     1     -77.337  61.176  -8.597  0.00  0.00    -0.475 OA
BRANCH  32  33
ATOM     33  C27 UNL     1     -78.668  60.960  -8.988  0.00  0.00    +0.139 A 
ATOM     34  C28 UNL     1     -79.734  60.969  -8.069  0.00  0.00    +0.037 A 
ATOM     35  C29 UNL     1     -81.044  60.754  -8.505  0.00  0.00    +0.006 A 
ATOM     36  C30 UNL     1     -81.321  60.534  -9.867  0.00  0.00    +0.040 A 
ATOM     37  C32 UNL     1     -80.249  60.525 -10.780  0.00  0.00    +0.006 A 
ATOM     38  C33 UNL     1     -78.938  60.732 -10.340  0.00  0.00    +0.037 A 
BRANCH  36  39
ATOM     39  C31 UNL     1     -82.718  60.320 -10.330  0.00  0.00    +0.208 A 
ATOM     40  N3  UNL     1     -83.694  61.256 -10.324  0.00  0.00    -0.106 NA
ATOM     41  N4  UNL     1     -84.764  60.663 -10.825  0.00  0.00    -0.021 NA
ATOM     42  N5  UNL     1     -84.474  59.411 -11.131  0.00  0.00    -0.021 NA
ATOM     43  N6  UNL     1     -83.208  59.166 -10.837  0.00  0.00    -0.106 NA
ENDBRANCH  36  39
ENDBRANCH  32  33
ENDBRANCH  31  32
ENDBRANCH  30  31
ENDBRANCH  29  30
ENDBRANCH  28  29
ENDBRANCH  27  28
ENDBRANCH   6  27
TORSDOF 11
ENDMDL
MODEL 5
REMARK VINA RESULT:      -7.2      4.141      7.557
REMARK  Name = ./data/4wxx_site2_bc02/pdb/l1c1.pdb
REMARK  11 active torsions:
REMARK  status: ('A' for Active; 'I' for Inactive)
REMARK    1  A    between atoms: O1_2  and  C2_3
REMARK    2  A    between atoms: C5_6  and  C6_7
REMARK    3  A    between atoms: N2_9  and  C7_10
REMARK    4  A    between atoms: C22_26  and  O3_27
REMARK    5  A    between atoms: O3_27  and  C23_28
REMARK    6  A    between atoms: C23_28  and  C24_29
REMARK    7  A    between atoms: C24_29  and  C25_30
REMARK    8  A    between atoms: C25_30  and  C26_31
REMARK    9  A    between atoms: C26_31  and  O4_32
REMARK   10  A    between atoms: O4_32  and  C27_33
REMARK   11  A    between atoms: C30_36  and  C31_37
REMARK                            x       y       z     vdW  Elec       q    Type
REMARK                         _______ _______ _______ _____ _____    ______ ____
ROOT
ATOM      1  C2  UNL     1     -74.959  59.189 -10.588  0.00  0.00    +0.172 A 
ATOM      2  C3  UNL     1     -74.044  58.368 -11.270  0.00  0.00    +0.040 A 
ATOM      3  C4  UNL     1     -72.877  58.906 -11.814  0.00  0.00    +0.005 A 
ATOM      4  C5  UNL     1     -72.584  60.276 -11.681  0.00  0.00    +0.018 A 
ATOM      5  C21 UNL     1     -73.498  61.090 -10.982  0.00  0.00    +0.041 A 
ATOM      6  C22 UNL     1     -74.689  60.558 -10.451  0.00  0.00    +0.172 A 
ENDROOT
BRANCH   4   7
ATOM      7  C6  UNL     1     -71.350  60.881 -12.272  0.00  0.00    +0.079 C 
ATOM      8  N1  UNL     1     -70.379  60.089 -12.608  0.00  0.00    -0.172 NA
ATOM      9  N2  UNL     1     -69.138  60.502 -13.129  0.00  0.00    -0.222 N 
ATOM     10  C14 UNL     1     -68.924  61.751 -13.473  0.00  0.00    +0.253 C 
ATOM     11  O2  UNL     1     -67.720  62.103 -14.091  0.00  0.00    -0.271 OA
ATOM     12  C15 UNL     1     -69.984  62.822 -13.278  0.00  0.00    +0.091 C 
ATOM     13  C16 UNL     1     -69.315  64.161 -12.822  0.00  0.00    +0.035 C 
ATOM     14  C17 UNL     1     -70.207  65.021 -11.966  0.00  0.00    -0.030 C 
ATOM     15  C18 UNL     1     -70.965  64.458 -11.021  0.00  0.00    -0.030 C 
ATOM     16  C19 UNL     1     -71.018  62.963 -10.924  0.00  0.00    +0.032 C 
ATOM     17  C20 UNL     1     -71.161  62.379 -12.345  0.00  0.00    +0.056 C 
BRANCH   9  18
ATOM     18  C7  UNL     1     -68.132  59.434 -13.325  0.00  0.00    +0.108 C 
ATOM     19  C8  UNL     1     -67.690  59.366 -14.805  0.00  0.00    +0.024 C 
ATOM     20  C9  UNL     1     -67.038  58.032 -15.189  0.00  0.00    +0.002 C 
ATOM     21  C10 UNL     1     -65.785  57.699 -14.365  0.00  0.00    +0.000 C 
ATOM     22  C11 UNL     1     -66.132  57.188 -12.956  0.00  0.00    +0.000 C 
ATOM     23  C12 UNL     1     -66.297  58.289 -11.891  0.00  0.00    +0.002 C 
ATOM     24  C13 UNL     1     -66.932  59.611 -12.363  0.00  0.00    +0.024 C 
ENDBRANCH   9  18
ENDBRANCH   4   7
BRANCH   1  26
ATOM     25  C1  UNL     1     -77.438  58.842 -10.613  0.00  0.00    +0.253 C 
ATOM     26  O1  UNL     1     -76.147  58.683 -10.034  0.00  0.00    -0.468 OA
ENDBRANCH   1  26
BRANCH   6  27
ATOM     27  O3  UNL     1     -75.634  61.357  -9.789  0.00  0.00    -0.472 OA
BRANCH  27  28
ATOM     28  C23 UNL     1     -76.660  62.106 -10.437  0.00  0.00    +0.206 C 
BRANCH  28  29
ATOM     29  C24 UNL     1     -76.664  61.804 -11.936  0.00  0.00    +0.051 C 
BRANCH  29  30
ATOM     30  C25 UNL     1     -77.295  62.956 -12.734  0.00  0.00    +0.051 C 
BRANCH  30  31
ATOM     31  C26 UNL     1     -76.390  64.187 -12.759  0.00  0.00    +0.206 C 
BRANCH  31  32
ATOM     32  O4  UNL     1     -75.029  63.806 -12.569  0.00  0.00    -0.475 OA
BRANCH  32  33
ATOM     33  C27 UNL     1     -74.120  63.586 -13.616  0.00  0.00    +0.139 A 
ATOM     34  C28 UNL     1     -74.053  62.365 -14.312  0.00  0.00    +0.037 A 
ATOM     35  C29 UNL     1     -73.135  62.193 -15.351  0.00  0.00    +0.006 A 
ATOM     36  C30 UNL     1     -72.269  63.238 -15.724  0.00  0.00    +0.040 A 
ATOM     37  C32 UNL     1     -72.340  64.456 -15.022  0.00  0.00    +0.006 A 
ATOM     38  C33 UNL     1     -73.255  64.623 -13.977  0.00  0.00    +0.037 A 
BRANCH  36  39
ATOM     39  C31 UNL     1     -71.303  63.057 -16.840  0.00  0.00    +0.208 A 
ATOM     40  N3  UNL     1     -70.075  63.619 -16.908  0.00  0.00    -0.106 NA
ATOM     41  N4  UNL     1     -69.548  63.194 -18.045  0.00  0.00    -0.021 NA
ATOM     42  N5  UNL     1     -70.406  62.403 -18.662  0.00  0.00    -0.021 NA
ATOM     43  N6  UNL     1     -71.508  62.296 -17.939  0.00  0.00    -0.106 NA
ENDBRANCH  36  39
ENDBRANCH  32  33
ENDBRANCH  31  32
ENDBRANCH  30  31
ENDBRANCH  29  30
ENDBRANCH  28  29
ENDBRANCH  27  28
ENDBRANCH   6  27
TORSDOF 11
ENDMDL
