MODEL 1
REMARK VINA RESULT:      -9.6      0.000      0.000
REMARK  Name = ./data/4wxx_site2_bc02/pdb/l1c0.pdb
REMARK  11 active torsions:
REMARK  status: ('A' for Active; 'I' for Inactive)
REMARK    1  A    between atoms: O1_2  and  C2_3
REMARK    2  A    between atoms: C5_6  and  C6_7
REMARK    3  A    between atoms: N2_9  and  C7_10
REMARK    4  A    between atoms: C22_26  and  O3_27
REMARK    5  A    between atoms: O3_27  and  C23_28
REMARK    6  A    between atoms: C23_28  and  C24_29
REMARK    7  A    between atoms: C24_29  and  C25_30
REMARK    8  A    between atoms: C25_30  and  C26_31
REMARK    9  A    between atoms: C26_31  and  O4_32
REMARK   10  A    between atoms: O4_32  and  C27_33
REMARK   11  A    between atoms: C30_36  and  C31_37
REMARK                            x       y       z     vdW  Elec       q    Type
REMARK                         _______ _______ _______ _____ _____    ______ ____
ROOT
ATOM      1  C2  UNL     1     -51.599  61.782   7.999  0.00  0.00    +0.172 A 
ATOM      2  C3  UNL     1     -50.389  61.763   8.712  0.00  0.00    +0.040 A 
ATOM      3  C4  UNL     1     -49.461  60.744   8.500  0.00  0.00    +0.005 A 
ATOM      4  C5  UNL     1     -49.709  59.722   7.566  0.00  0.00    +0.018 A 
ATOM      5  C21 UNL     1     -50.918  59.755   6.844  0.00  0.00    +0.041 A 
ATOM      6  C22 UNL     1     -51.873  60.767   7.072  0.00  0.00    +0.172 A 
ENDROOT
BRANCH   4   7
ATOM      7  C6  UNL     1     -48.695  58.642   7.359  0.00  0.00    +0.079 C 
ATOM      8  N1  UNL     1     -49.009  57.628   6.608  0.00  0.00    -0.172 NA
ATOM      9  N2  UNL     1     -48.146  56.547   6.334  0.00  0.00    -0.222 N 
ATOM     10  C14 UNL     1     -46.863  56.624   6.607  0.00  0.00    +0.253 C 
ATOM     11  O2  UNL     1     -46.013  55.578   6.233  0.00  0.00    -0.271 OA
ATOM     12  C15 UNL     1     -46.290  57.883   7.247  0.00  0.00    +0.091 C 
ATOM     13  C16 UNL     1     -45.071  57.606   8.150  0.00  0.00    +0.035 C 
ATOM     14  C17 UNL     1     -45.480  56.715   9.284  0.00  0.00    -0.030 C 
ATOM     15  C18 UNL     1     -46.650  56.920   9.902  0.00  0.00    -0.030 C 
ATOM     16  C19 UNL     1     -47.543  58.085   9.541  0.00  0.00    +0.032 C 
ATOM     17  C20 UNL     1     -47.366  58.631   8.084  0.00  0.00    +0.056 C 
BRANCH   9  18
ATOM     18  C7  UNL     1     -48.750  55.376   5.662  0.00  0.00    +0.108 C 
ATOM     19  C8  UNL     1     -50.247  55.225   6.042  0.00  0.00    +0.024 C 
ATOM     20  C9  UNL     1     -50.707  53.758   6.055  0.00  0.00    +0.002 C 
ATOM     21  C10 UNL     1     -50.965  53.185   4.659  0.00  0.00    +0.000 C 
ATOM     22  C11 UNL     1     -49.730  53.204   3.750  0.00  0.00    +0.000 C 
ATOM     23  C12 UNL     1     -49.407  54.617   3.238  0.00  0.00    +0.002 C 
ATOM     24  C13 UNL     1     -48.443  55.404   4.140  0.00  0.00    +0.024 C 
ENDBRANCH   9  18
ENDBRANCH   4   7
BRANCH   1  26
ATOM     25  C1  UNL     1     -52.398  64.140   7.758  0.00  0.00    +0.253 C 
ATOM     26  O1  UNL     1     -52.558  62.791   8.185  0.00  0.00    -0.468 OA
ENDBRANCH   1  26
BRANCH   6  27
ATOM     27  O3  UNL     1     -53.106  60.807   6.397  0.00  0.00    -0.472 OA
BRANCH  27  28
ATOM     28  C23 UNL     1     -53.353  60.313   5.081  0.00  0.00    +0.206 C 
BRANCH  28  29
ATOM     29  C24 UNL     1     -54.174  61.322   4.272  0.00  0.00    +0.051 C 
BRANCH  29  30
ATOM     30  C25 UNL     1     -54.225  62.685   4.971  0.00  0.00    +0.051 C 
BRANCH  30  31
ATOM     31  C26 UNL     1     -53.732  63.802   4.052  0.00  0.00    +0.206 C 
BRANCH  31  32
ATOM     32  O4  UNL     1     -52.484  63.423   3.474  0.00  0.00    -0.475 OA
BRANCH  32  33
ATOM     33  C27 UNL     1     -51.249  64.009   3.781  0.00  0.00    +0.139 A 
ATOM     34  C28 UNL     1     -50.531  63.501   4.866  0.00  0.00    +0.037 A 
ATOM     35  C29 UNL     1     -49.311  64.067   5.240  0.00  0.00    +0.006 A 
ATOM     36  C30 UNL     1     -48.771  65.149   4.518  0.00  0.00    +0.040 A 
ATOM     37  C32 UNL     1     -49.485  65.643   3.408  0.00  0.00    +0.006 A 
ATOM     38  C33 UNL     1     -50.715  65.083   3.046  0.00  0.00    +0.037 A 
BRANCH  36  39
ATOM     39  C31 UNL     1     -47.479  65.760   4.924  0.00  0.00    +0.208 A 
ATOM     40  N3  UNL     1     -46.856  66.771   4.281  0.00  0.00    -0.106 NA
ATOM     41  N4  UNL     1     -45.762  67.021   4.980  0.00  0.00    -0.021 NA
ATOM     42  N5  UNL     1     -45.700  66.200   6.014  0.00  0.00    -0.021 NA
ATOM     43  N6  UNL     1     -46.755  65.406   6.009  0.00  0.00    -0.106 NA
ENDBRANCH  36  39
ENDBRANCH  32  33
ENDBRANCH  31  32
ENDBRANCH  30  31
ENDBRANCH  29  30
ENDBRANCH  28  29
ENDBRANCH  27  28
ENDBRANCH   6  27
TORSDOF 11
ENDMDL
MODEL 2
REMARK VINA RESULT:      -9.1      2.434      6.665
REMARK  Name = ./data/4wxx_site2_bc02/pdb/l1c0.pdb
REMARK  11 active torsions:
REMARK  status: ('A' for Active; 'I' for Inactive)
REMARK    1  A    between atoms: O1_2  and  C2_3
REMARK    2  A    between atoms: C5_6  and  C6_7
REMARK    3  A    between atoms: N2_9  and  C7_10
REMARK    4  A    between atoms: C22_26  and  O3_27
REMARK    5  A    between atoms: O3_27  and  C23_28
REMARK    6  A    between atoms: C23_28  and  C24_29
REMARK    7  A    between atoms: C24_29  and  C25_30
REMARK    8  A    between atoms: C25_30  and  C26_31
REMARK    9  A    between atoms: C26_31  and  O4_32
REMARK   10  A    between atoms: O4_32  and  C27_33
REMARK   11  A    between atoms: C30_36  and  C31_37
REMARK                            x       y       z     vdW  Elec       q    Type
REMARK                         _______ _______ _______ _____ _____    ______ ____
ROOT
ATOM      1  C2  UNL     1     -45.431  56.618   7.489  0.00  0.00    +0.172 A 
ATOM      2  C3  UNL     1     -45.541  55.806   6.349  0.00  0.00    +0.040 A 
ATOM      3  C4  UNL     1     -46.771  55.647   5.710  0.00  0.00    +0.005 A 
ATOM      4  C5  UNL     1     -47.922  56.300   6.185  0.00  0.00    +0.018 A 
ATOM      5  C21 UNL     1     -47.804  57.124   7.321  0.00  0.00    +0.041 A 
ATOM      6  C22 UNL     1     -46.569  57.269   7.988  0.00  0.00    +0.172 A 
ENDROOT
BRANCH   4   7
ATOM      7  C6  UNL     1     -49.228  56.111   5.480  0.00  0.00    +0.079 C 
ATOM      8  N1  UNL     1     -50.088  57.086   5.490  0.00  0.00    -0.172 NA
ATOM      9  N2  UNL     1     -51.351  57.034   4.865  0.00  0.00    -0.222 N 
ATOM     10  C14 UNL     1     -51.636  56.088   3.998  0.00  0.00    +0.253 C 
ATOM     11  O2  UNL     1     -52.858  56.118   3.318  0.00  0.00    -0.271 OA
ATOM     12  C15 UNL     1     -50.605  55.014   3.670  0.00  0.00    +0.091 C 
ATOM     13  C16 UNL     1     -51.238  53.659   3.293  0.00  0.00    +0.035 C 
ATOM     14  C17 UNL     1     -52.028  53.134   4.453  0.00  0.00    -0.030 C 
ATOM     15  C18 UNL     1     -51.538  53.241   5.694  0.00  0.00    -0.030 C 
ATOM     16  C19 UNL     1     -50.161  53.808   5.956  0.00  0.00    +0.032 C 
ATOM     17  C20 UNL     1     -49.627  54.789   4.858  0.00  0.00    +0.056 C 
BRANCH   9  18
ATOM     18  C7  UNL     1     -52.287  58.135   5.180  0.00  0.00    +0.108 C 
ATOM     19  C8  UNL     1     -53.579  57.594   5.849  0.00  0.00    +0.024 C 
ATOM     20  C9  UNL     1     -54.817  58.442   5.513  0.00  0.00    +0.002 C 
ATOM     21  C10 UNL     1     -54.902  59.744   6.315  0.00  0.00    +0.000 C 
ATOM     22  C11 UNL     1     -53.708  60.681   6.093  0.00  0.00    +0.000 C 
ATOM     23  C12 UNL     1     -52.441  60.186   6.809  0.00  0.00    +0.002 C 
ATOM     24  C13 UNL     1     -51.556  59.268   5.951  0.00  0.00    +0.024 C 
ENDBRANCH   9  18
ENDBRANCH   4   7
BRANCH   1  26
ATOM     25  C1  UNL     1     -43.451  55.753   8.748  0.00  0.00    +0.253 C 
ATOM     26  O1  UNL     1     -44.212  56.803   8.159  0.00  0.00    -0.468 OA
ENDBRANCH   1  26
BRANCH   6  27
ATOM     27  O3  UNL     1     -46.425  58.053   9.145  0.00  0.00    -0.472 OA
BRANCH  27  28
ATOM     28  C23 UNL     1     -46.670  57.618  10.483  0.00  0.00    +0.206 C 
BRANCH  28  29
ATOM     29  C24 UNL     1     -48.172  57.602  10.777  0.00  0.00    +0.051 C 
BRANCH  29  30
ATOM     30  C25 UNL     1     -48.559  58.716  11.758  0.00  0.00    +0.051 C 
BRANCH  30  31
ATOM     31  C26 UNL     1     -49.389  59.800  11.072  0.00  0.00    +0.206 C 
BRANCH  31  32
ATOM     32  O4  UNL     1     -49.365  59.592   9.661  0.00  0.00    -0.475 OA
BRANCH  32  33
ATOM     33  C27 UNL     1     -49.306  60.612   8.702  0.00  0.00    +0.139 A 
ATOM     34  C28 UNL     1     -48.350  60.509   7.689  0.00  0.00    +0.037 A 
ATOM     35  C29 UNL     1     -48.221  61.512   6.727  0.00  0.00    +0.006 A 
ATOM     36  C30 UNL     1     -49.067  62.638   6.748  0.00  0.00    +0.040 A 
ATOM     37  C32 UNL     1     -50.047  62.728   7.756  0.00  0.00    +0.006 A 
ATOM     38  C33 UNL     1     -50.162  61.728   8.728  0.00  0.00    +0.037 A 
BRANCH  36  39
ATOM     39  C31 UNL     1     -48.921  63.712   5.732  0.00  0.00    +0.208 A 
ATOM     40  N3  UNL     1     -48.394  64.936   5.956  0.00  0.00    -0.106 NA
ATOM     41  N4  UNL     1     -48.432  65.562   4.793  0.00  0.00    -0.021 NA
ATOM     42  N5  UNL     1     -48.963  64.768   3.879  0.00  0.00    -0.021 NA
ATOM     43  N6  UNL     1     -49.275  63.610   4.431  0.00  0.00    -0.106 NA
ENDBRANCH  36  39
ENDBRANCH  32  33
ENDBRANCH  31  32
ENDBRANCH  30  31
ENDBRANCH  29  30
ENDBRANCH  28  29
ENDBRANCH  27  28
ENDBRANCH   6  27
TORSDOF 11
ENDMDL
MODEL 3
REMARK VINA RESULT:      -8.9      1.920      2.858
REMARK  Name = ./data/4wxx_site2_bc02/pdb/l1c0.pdb
REMARK  11 active torsions:
REMARK  status: ('A' for Active; 'I' for Inactive)
REMARK    1  A    between atoms: O1_2  and  C2_3
REMARK    2  A    between atoms: C5_6  and  C6_7
REMARK    3  A    between atoms: N2_9  and  C7_10
REMARK    4  A    between atoms: C22_26  and  O3_27
REMARK    5  A    between atoms: O3_27  and  C23_28
REMARK    6  A    between atoms: C23_28  and  C24_29
REMARK    7  A    between atoms: C24_29  and  C25_30
REMARK    8  A    between atoms: C25_30  and  C26_31
REMARK    9  A    between atoms: C26_31  and  O4_32
REMARK   10  A    between atoms: O4_32  and  C27_33
REMARK   11  A    between atoms: C30_36  and  C31_37
REMARK                            x       y       z     vdW  Elec       q    Type
REMARK                         _______ _______ _______ _____ _____    ______ ____
ROOT
ATOM      1  C2  UNL     1     -52.977  64.447   6.118  0.00  0.00    +0.172 A 
ATOM      2  C3  UNL     1     -51.918  64.398   7.038  0.00  0.00    +0.040 A 
ATOM      3  C4  UNL     1     -51.149  63.241   7.168  0.00  0.00    +0.005 A 
ATOM      4  C5  UNL     1     -51.410  62.106   6.380  0.00  0.00    +0.018 A 
ATOM      5  C21 UNL     1     -52.465  62.167   5.449  0.00  0.00    +0.041 A 
ATOM      6  C22 UNL     1     -53.263  63.324   5.329  0.00  0.00    +0.172 A 
ENDROOT
BRANCH   4   7
ATOM      7  C6  UNL     1     -50.569  60.880   6.542  0.00  0.00    +0.079 C 
ATOM      8  N1  UNL     1     -50.986  59.765   6.019  0.00  0.00    -0.172 NA
ATOM      9  N2  UNL     1     -50.290  58.542   6.100  0.00  0.00    -0.222 N 
ATOM     10  C14 UNL     1     -49.033  58.506   6.483  0.00  0.00    +0.253 C 
ATOM     11  O2  UNL     1     -48.336  57.294   6.458  0.00  0.00    -0.271 OA
ATOM     12  C15 UNL     1     -48.313  59.793   6.869  0.00  0.00    +0.091 C 
ATOM     13  C16 UNL     1     -47.221  59.584   7.938  0.00  0.00    +0.035 C 
ATOM     14  C17 UNL     1     -47.846  59.066   9.197  0.00  0.00    -0.030 C 
ATOM     15  C18 UNL     1     -49.009  59.576   9.621  0.00  0.00    -0.030 C 
ATOM     16  C19 UNL     1     -49.677  60.727   8.904  0.00  0.00    +0.032 C 
ATOM     17  C20 UNL     1     -49.313  60.866   7.387  0.00  0.00    +0.056 C 
BRANCH   9  18
ATOM     18  C7  UNL     1     -51.023  57.336   5.659  0.00  0.00    +0.108 C 
ATOM     19  C8  UNL     1     -52.525  57.650   5.424  0.00  0.00    +0.024 C 
ATOM     20  C9  UNL     1     -53.433  56.447   5.723  0.00  0.00    +0.002 C 
ATOM     21  C10 UNL     1     -53.441  55.393   4.611  0.00  0.00    +0.000 C 
ATOM     22  C11 UNL     1     -52.060  54.787   4.331  0.00  0.00    +0.000 C 
ATOM     23  C12 UNL     1     -51.144  55.757   3.567  0.00  0.00    +0.002 C 
ATOM     24  C13 UNL     1     -50.286  56.652   4.475  0.00  0.00    +0.024 C 
ENDBRANCH   9  18
ENDBRANCH   4   7
BRANCH   1  26
ATOM     25  C1  UNL     1     -54.087  66.506   7.004  0.00  0.00    +0.253 C 
ATOM     26  O1  UNL     1     -53.773  65.593   5.958  0.00  0.00    -0.468 OA
ENDBRANCH   1  26
BRANCH   6  27
ATOM     27  O3  UNL     1     -54.347  63.403   4.439  0.00  0.00    -0.472 OA
BRANCH  27  28
ATOM     28  C23 UNL     1     -54.880  62.321   3.675  0.00  0.00    +0.206 C 
BRANCH  28  29
ATOM     29  C24 UNL     1     -54.199  62.240   2.307  0.00  0.00    +0.051 C 
BRANCH  29  30
ATOM     30  C25 UNL     1     -54.136  63.616   1.633  0.00  0.00    +0.051 C 
BRANCH  30  31
ATOM     31  C26 UNL     1     -52.750  63.888   1.049  0.00  0.00    +0.206 C 
BRANCH  31  32
ATOM     32  O4  UNL     1     -52.285  65.157   1.505  0.00  0.00    -0.475 OA
BRANCH  32  33
ATOM     33  C27 UNL     1     -51.139  65.355   2.287  0.00  0.00    +0.139 A 
ATOM     34  C28 UNL     1     -50.348  66.476   2.023  0.00  0.00    +0.037 A 
ATOM     35  C29 UNL     1     -49.177  66.707   2.747  0.00  0.00    +0.006 A 
ATOM     36  C30 UNL     1     -48.780  65.824   3.770  0.00  0.00    +0.040 A 
ATOM     37  C32 UNL     1     -49.594  64.708   4.052  0.00  0.00    +0.006 A 
ATOM     38  C33 UNL     1     -50.758  64.472   3.313  0.00  0.00    +0.037 A 
BRANCH  36  39
ATOM     39  C31 UNL     1     -47.527  66.062   4.531  0.00  0.00    +0.208 A 
ATOM     40  N3  UNL     1     -46.555  66.934   4.184  0.00  0.00    -0.106 NA
ATOM     41  N4  UNL     1     -45.641  66.850   5.136  0.00  0.00    -0.021 NA
ATOM     42  N5  UNL     1     -46.021  65.961   6.037  0.00  0.00    -0.021 NA
ATOM     43  N6  UNL     1     -47.190  65.455   5.691  0.00  0.00    -0.106 NA
ENDBRANCH  36  39
ENDBRANCH  32  33
ENDBRANCH  31  32
ENDBRANCH  30  31
ENDBRANCH  29  30
ENDBRANCH  28  29
ENDBRANCH  27  28
ENDBRANCH   6  27
TORSDOF 11
ENDMDL
MODEL 4
REMARK VINA RESULT:      -8.8      2.712      9.523
REMARK  Name = ./data/4wxx_site2_bc02/pdb/l1c0.pdb
REMARK  11 active torsions:
REMARK  status: ('A' for Active; 'I' for Inactive)
REMARK    1  A    between atoms: O1_2  and  C2_3
REMARK    2  A    between atoms: C5_6  and  C6_7
REMARK    3  A    between atoms: N2_9  and  C7_10
REMARK    4  A    between atoms: C22_26  and  O3_27
REMARK    5  A    between atoms: O3_27  and  C23_28
REMARK    6  A    between atoms: C23_28  and  C24_29
REMARK    7  A    between atoms: C24_29  and  C25_30
REMARK    8  A    between atoms: C25_30  and  C26_31
REMARK    9  A    between atoms: C26_31  and  O4_32
REMARK   10  A    between atoms: O4_32  and  C27_33
REMARK   11  A    between atoms: C30_36  and  C31_37
REMARK                            x       y       z     vdW  Elec       q    Type
REMARK                         _______ _______ _______ _____ _____    ______ ____
ROOT
ATOM      1  C2  UNL     1     -54.044  59.884   6.169  0.00  0.00    +0.172 A 
ATOM      2  C3  UNL     1     -54.459  60.177   4.860  0.00  0.00    +0.040 A 
ATOM      3  C4  UNL     1     -53.944  61.285   4.186  0.00  0.00    +0.005 A 
ATOM      4  C5  UNL     1     -52.996  62.125   4.796  0.00  0.00    +0.018 A 
ATOM      5  C21 UNL     1     -52.573  61.819   6.104  0.00  0.00    +0.041 A 
ATOM      6  C22 UNL     1     -53.108  60.715   6.801  0.00  0.00    +0.172 A 
ENDROOT
BRANCH   4   7
ATOM      7  C6  UNL     1     -52.461  63.306   4.050  0.00  0.00    +0.079 C 
ATOM      8  N1  UNL     1     -51.267  63.734   4.334  0.00  0.00    -0.172 NA
ATOM      9  N2  UNL     1     -50.648  64.835   3.706  0.00  0.00    -0.222 N 
ATOM     10  C14 UNL     1     -51.139  65.340   2.597  0.00  0.00    +0.253 C 
ATOM     11  O2  UNL     1     -50.451  66.366   1.940  0.00  0.00    -0.271 OA
ATOM     12  C15 UNL     1     -52.404  64.753   1.982  0.00  0.00    +0.091 C 
ATOM     13  C16 UNL     1     -53.248  65.792   1.215  0.00  0.00    +0.035 C 
ATOM     14  C17 UNL     1     -53.705  66.861   2.161  0.00  0.00    -0.030 C 
ATOM     15  C18 UNL     1     -54.133  66.528   3.385  0.00  0.00    -0.030 C 
ATOM     16  C19 UNL     1     -54.246  65.085   3.819  0.00  0.00    +0.032 C 
ATOM     17  C20 UNL     1     -53.302  64.088   3.063  0.00  0.00    +0.056 C 
BRANCH   9  18
ATOM     18  C7  UNL     1     -49.394  65.324   4.318  0.00  0.00    +0.108 C 
ATOM     19  C8  UNL     1     -48.564  64.150   4.904  0.00  0.00    +0.024 C 
ATOM     20  C9  UNL     1     -47.744  64.566   6.136  0.00  0.00    +0.002 C 
ATOM     21  C10 UNL     1     -46.470  65.343   5.790  0.00  0.00    +0.000 C 
ATOM     22  C11 UNL     1     -46.736  66.650   5.033  0.00  0.00    +0.000 C 
ATOM     23  C12 UNL     1     -47.124  66.402   3.566  0.00  0.00    +0.002 C 
ATOM     24  C13 UNL     1     -48.636  66.257   3.335  0.00  0.00    +0.024 C 
ENDBRANCH   9  18
ENDBRANCH   4   7
BRANCH   1  26
ATOM     25  C1  UNL     1     -54.450  57.430   6.429  0.00  0.00    +0.253 C 
ATOM     26  O1  UNL     1     -54.539  58.779   6.878  0.00  0.00    -0.468 OA
ENDBRANCH   1  26
BRANCH   6  27
ATOM     27  O3  UNL     1     -52.737  60.404   8.120  0.00  0.00    -0.472 OA
BRANCH  27  28
ATOM     28  C23 UNL     1     -52.128  61.301   9.049  0.00  0.00    +0.206 C 
BRANCH  28  29
ATOM     29  C24 UNL     1     -50.655  60.942   9.258  0.00  0.00    +0.051 C 
BRANCH  29  30
ATOM     30  C25 UNL     1     -49.759  61.652   8.236  0.00  0.00    +0.051 C 
BRANCH  30  31
ATOM     31  C26 UNL     1     -48.890  60.656   7.470  0.00  0.00    +0.206 C 
BRANCH  31  32
ATOM     32  O4  UNL     1     -49.661  60.058   6.429  0.00  0.00    -0.475 OA
BRANCH  32  33
ATOM     33  C27 UNL     1     -49.693  58.686   6.144  0.00  0.00    +0.139 A 
ATOM     34  C28 UNL     1     -48.520  57.949   6.322  0.00  0.00    +0.037 A 
ATOM     35  C29 UNL     1     -48.483  56.586   6.022  0.00  0.00    +0.006 A 
ATOM     36  C30 UNL     1     -49.633  55.924   5.552  0.00  0.00    +0.040 A 
ATOM     37  C32 UNL     1     -50.823  56.664   5.398  0.00  0.00    +0.006 A 
ATOM     38  C33 UNL     1     -50.851  58.033   5.685  0.00  0.00    +0.037 A 
BRANCH  36  39
ATOM     39  C31 UNL     1     -49.590  54.476   5.221  0.00  0.00    +0.208 A 
ATOM     40  N3  UNL     1     -50.582  53.781   4.623  0.00  0.00    -0.106 NA
ATOM     41  N4  UNL     1     -50.127  52.546   4.494  0.00  0.00    -0.021 NA
ATOM     42  N5  UNL     1     -48.906  52.470   4.993  0.00  0.00    -0.021 NA
ATOM     43  N6  UNL     1     -48.542  53.653   5.450  0.00  0.00    -0.106 NA
ENDBRANCH  36  39
ENDBRANCH  32  33
ENDBRANCH  31  32
ENDBRANCH  30  31
ENDBRANCH  29  30
ENDBRANCH  28  29
ENDBRANCH  27  28
ENDBRANCH   6  27
TORSDOF 11
ENDMDL
MODEL 5
REMARK VINA RESULT:      -8.8      2.078      6.393
REMARK  Name = ./data/4wxx_site2_bc02/pdb/l1c0.pdb
REMARK  11 active torsions:
REMARK  status: ('A' for Active; 'I' for Inactive)
REMARK    1  A    between atoms: O1_2  and  C2_3
REMARK    2  A    between atoms: C5_6  and  C6_7
REMARK    3  A    between atoms: N2_9  and  C7_10
REMARK    4  A    between atoms: C22_26  and  O3_27
REMARK    5  A    between atoms: O3_27  and  C23_28
REMARK    6  A    between atoms: C23_28  and  C24_29
REMARK    7  A    between atoms: C24_29  and  C25_30
REMARK    8  A    between atoms: C25_30  and  C26_31
REMARK    9  A    between atoms: C26_31  and  O4_32
REMARK   10  A    between atoms: O4_32  and  C27_33
REMARK   11  A    between atoms: C30_36  and  C31_37
REMARK                            x       y       z     vdW  Elec       q    Type
REMARK                         _______ _______ _______ _____ _____    ______ ____
ROOT
ATOM      1  C2  UNL     1     -46.439  56.444   6.517  0.00  0.00    +0.172 A 
ATOM      2  C3  UNL     1     -46.921  55.432   5.671  0.00  0.00    +0.040 A 
ATOM      3  C4  UNL     1     -48.276  55.369   5.346  0.00  0.00    +0.005 A 
ATOM      4  C5  UNL     1     -49.185  56.317   5.847  0.00  0.00    +0.018 A 
ATOM      5  C21 UNL     1     -48.694  57.338   6.683  0.00  0.00    +0.041 A 
ATOM      6  C22 UNL     1     -47.329  57.394   7.038  0.00  0.00    +0.172 A 
ENDROOT
BRANCH   4   7
ATOM      7  C6  UNL     1     -50.633  56.225   5.482  0.00  0.00    +0.079 C 
ATOM      8  N1  UNL     1     -51.374  57.286   5.599  0.00  0.00    -0.172 NA
ATOM      9  N2  UNL     1     -52.749  57.332   5.289  0.00  0.00    -0.222 N 
ATOM     10  C14 UNL     1     -53.317  56.365   4.602  0.00  0.00    +0.253 C 
ATOM     11  O2  UNL     1     -54.657  56.483   4.221  0.00  0.00    -0.271 OA
ATOM     12  C15 UNL     1     -52.496  55.165   4.147  0.00  0.00    +0.091 C 
ATOM     13  C16 UNL     1     -53.320  53.864   4.052  0.00  0.00    +0.035 C 
ATOM     14  C17 UNL     1     -53.855  53.511   5.406  0.00  0.00    -0.030 C 
ATOM     15  C18 UNL     1     -53.076  53.648   6.486  0.00  0.00    -0.030 C 
ATOM     16  C19 UNL     1     -51.631  54.077   6.371  0.00  0.00    +0.032 C 
ATOM     17  C20 UNL     1     -51.287  54.915   5.094  0.00  0.00    +0.056 C 
BRANCH   9  18
ATOM     18  C7  UNL     1     -53.479  58.547   5.708  0.00  0.00    +0.108 C 
ATOM     19  C8  UNL     1     -52.885  59.132   7.018  0.00  0.00    +0.024 C 
ATOM     20  C9  UNL     1     -53.945  59.829   7.886  0.00  0.00    +0.002 C 
ATOM     21  C10 UNL     1     -54.320  61.229   7.388  0.00  0.00    +0.000 C 
ATOM     22  C11 UNL     1     -54.902  61.239   5.969  0.00  0.00    +0.000 C 
ATOM     23  C12 UNL     1     -53.822  61.019   4.897  0.00  0.00    +0.002 C 
ATOM     24  C13 UNL     1     -53.603  59.544   4.523  0.00  0.00    +0.024 C 
ENDBRANCH   9  18
ENDBRANCH   4   7
BRANCH   1  26
ATOM     25  C1  UNL     1     -44.402  55.616   7.708  0.00  0.00    +0.253 C 
ATOM     26  O1  UNL     1     -45.083  56.541   6.866  0.00  0.00    -0.468 OA
ENDBRANCH   1  26
BRANCH   6  27
ATOM     27  O3  UNL     1     -46.814  58.376   7.900  0.00  0.00    -0.472 OA
BRANCH  27  28
ATOM     28  C23 UNL     1     -47.440  58.854   9.090  0.00  0.00    +0.206 C 
BRANCH  28  29
ATOM     29  C24 UNL     1     -48.848  59.374   8.786  0.00  0.00    +0.051 C 
BRANCH  29  30
ATOM     30  C25 UNL     1     -49.334  60.335   9.878  0.00  0.00    +0.051 C 
BRANCH  30  31
ATOM     31  C26 UNL     1     -50.452  61.242   9.365  0.00  0.00    +0.206 C 
BRANCH  31  32
ATOM     32  O4  UNL     1     -50.350  61.363   7.947  0.00  0.00    -0.475 OA
BRANCH  32  33
ATOM     33  C27 UNL     1     -49.703  62.410   7.278  0.00  0.00    +0.139 A 
ATOM     34  C28 UNL     1     -48.492  62.135   6.639  0.00  0.00    +0.037 A 
ATOM     35  C29 UNL     1     -47.785  63.146   5.986  0.00  0.00    +0.006 A 
ATOM     36  C30 UNL     1     -48.290  64.460   5.941  0.00  0.00    +0.040 A 
ATOM     37  C32 UNL     1     -49.525  64.730   6.564  0.00  0.00    +0.006 A 
ATOM     38  C33 UNL     1     -50.222  63.717   7.231  0.00  0.00    +0.037 A 
BRANCH  36  39
ATOM     39  C31 UNL     1     -47.532  65.539   5.257  0.00  0.00    +0.208 A 
ATOM     40  N3  UNL     1     -47.880  66.120   4.089  0.00  0.00    -0.106 NA
ATOM     41  N4  UNL     1     -46.955  67.035   3.853  0.00  0.00    -0.021 NA
ATOM     42  N5  UNL     1     -46.064  67.025   4.829  0.00  0.00    -0.021 NA
ATOM     43  N6  UNL     1     -46.396  66.108   5.719  0.00  0.00    -0.106 NA
ENDBRANCH  36  39
ENDBRANCH  32  33
ENDBRANCH  31  32
ENDBRANCH  30  31
ENDBRANCH  29  30
ENDBRANCH  28  29
ENDBRANCH  27  28
ENDBRANCH   6  27
TORSDOF 11
ENDMDL
MODEL 6
REMARK VINA RESULT:      -8.5      2.892     10.077
REMARK  Name = ./data/4wxx_site2_bc02/pdb/l1c0.pdb
REMARK  11 active torsions:
REMARK  status: ('A' for Active; 'I' for Inactive)
REMARK    1  A    between atoms: O1_2  and  C2_3
REMARK    2  A    between atoms: C5_6  and  C6_7
REMARK    3  A    between atoms: N2_9  and  C7_10
REMARK    4  A    between atoms: C22_26  and  O3_27
REMARK    5  A    between atoms: O3_27  and  C23_28
REMARK    6  A    between atoms: C23_28  and  C24_29
REMARK    7  A    between atoms: C24_29  and  C25_30
REMARK    8  A    between atoms: C25_30  and  C26_31
REMARK    9  A    between atoms: C26_31  and  O4_32
REMARK   10  A    between atoms: O4_32  and  C27_33
REMARK   11  A    between atoms: C30_36  and  C31_37
REMARK                            x       y       z     vdW  Elec       q    Type
REMARK                         _______ _______ _______ _____ _____    ______ ____
ROOT
ATOM      1  C2  UNL     1     -48.539  59.021  10.457  0.00  0.00    +0.172 A 
ATOM      2  C3  UNL     1     -49.329  60.153  10.717  0.00  0.00    +0.040 A 
ATOM      3  C4  UNL     1     -49.739  60.984   9.674  0.00  0.00    +0.005 A 
ATOM      4  C5  UNL     1     -49.379  60.705   8.343  0.00  0.00    +0.018 A 
ATOM      5  C21 UNL     1     -48.598  59.562   8.087  0.00  0.00    +0.041 A 
ATOM      6  C22 UNL     1     -48.158  58.731   9.139  0.00  0.00    +0.172 A 
ENDROOT
BRANCH   4   7
ATOM      7  C6  UNL     1     -49.832  61.614   7.245  0.00  0.00    +0.079 C 
ATOM      8  N1  UNL     1     -48.951  62.367   6.656  0.00  0.00    -0.172 NA
ATOM      9  N2  UNL     1     -49.248  63.265   5.610  0.00  0.00    -0.222 N 
ATOM     10  C14 UNL     1     -50.397  63.204   4.976  0.00  0.00    +0.253 C 
ATOM     11  O2  UNL     1     -50.627  64.038   3.877  0.00  0.00    -0.271 OA
ATOM     12  C15 UNL     1     -51.441  62.169   5.380  0.00  0.00    +0.091 C 
ATOM     13  C16 UNL     1     -52.890  62.639   5.140  0.00  0.00    +0.035 C 
ATOM     14  C17 UNL     1     -53.167  63.853   5.973  0.00  0.00    -0.030 C 
ATOM     15  C18 UNL     1     -52.720  63.911   7.234  0.00  0.00    -0.030 C 
ATOM     16  C19 UNL     1     -52.007  62.742   7.875  0.00  0.00    +0.032 C 
ATOM     17  C20 UNL     1     -51.292  61.771   6.876  0.00  0.00    +0.056 C 
BRANCH   9  18
ATOM     18  C7  UNL     1     -48.175  64.208   5.227  0.00  0.00    +0.108 C 
ATOM     19  C8  UNL     1     -48.763  65.586   4.820  0.00  0.00    +0.024 C 
ATOM     20  C9  UNL     1     -47.917  66.295   3.750  0.00  0.00    +0.002 C 
ATOM     21  C10 UNL     1     -46.653  66.957   4.307  0.00  0.00    +0.000 C 
ATOM     22  C11 UNL     1     -45.691  65.970   4.982  0.00  0.00    +0.000 C 
ATOM     23  C12 UNL     1     -46.201  65.513   6.359  0.00  0.00    +0.002 C 
ATOM     24  C13 UNL     1     -47.068  64.245   6.315  0.00  0.00    +0.024 C 
ENDBRANCH   9  18
ENDBRANCH   4   7
BRANCH   1  26
ATOM     25  C1  UNL     1     -48.246  58.435  12.870  0.00  0.00    +0.253 C 
ATOM     26  O1  UNL     1     -48.108  58.162  11.479  0.00  0.00    -0.468 OA
ENDBRANCH   1  26
BRANCH   6  27
ATOM     27  O3  UNL     1     -47.346  57.605   8.922  0.00  0.00    -0.472 OA
BRANCH  27  28
ATOM     28  C23 UNL     1     -45.947  57.521   9.192  0.00  0.00    +0.206 C 
BRANCH  28  29
ATOM     29  C24 UNL     1     -45.274  56.523   8.245  0.00  0.00    +0.051 C 
BRANCH  29  30
ATOM     30  C25 UNL     1     -45.570  56.861   6.779  0.00  0.00    +0.051 C 
BRANCH  30  31
ATOM     31  C26 UNL     1     -46.235  55.688   6.060  0.00  0.00    +0.206 C 
BRANCH  31  32
ATOM     32  O4  UNL     1     -47.575  56.041   5.716  0.00  0.00    -0.475 OA
BRANCH  32  33
ATOM     33  C27 UNL     1     -48.617  55.126   5.518  0.00  0.00    +0.139 A 
ATOM     34  C28 UNL     1     -49.893  55.474   5.966  0.00  0.00    +0.037 A 
ATOM     35  C29 UNL     1     -50.963  54.589   5.826  0.00  0.00    +0.006 A 
ATOM     36  C30 UNL     1     -50.781  53.335   5.212  0.00  0.00    +0.040 A 
ATOM     37  C32 UNL     1     -49.498  52.997   4.736  0.00  0.00    +0.006 A 
ATOM     38  C33 UNL     1     -48.425  53.881   4.893  0.00  0.00    +0.037 A 
BRANCH  36  39
ATOM     39  C31 UNL     1     -51.917  52.388   5.074  0.00  0.00    +0.208 A 
ATOM     40  N3  UNL     1     -52.414  51.614   6.064  0.00  0.00    -0.106 NA
ATOM     41  N4  UNL     1     -53.422  50.948   5.527  0.00  0.00    -0.021 NA
ATOM     42  N5  UNL     1     -53.549  51.286   4.255  0.00  0.00    -0.021 NA
ATOM     43  N6  UNL     1     -52.630  52.181   3.944  0.00  0.00    -0.106 NA
ENDBRANCH  36  39
ENDBRANCH  32  33
ENDBRANCH  31  32
ENDBRANCH  30  31
ENDBRANCH  29  30
ENDBRANCH  28  29
ENDBRANCH  27  28
ENDBRANCH   6  27
TORSDOF 11
ENDMDL
MODEL 7
REMARK VINA RESULT:      -8.4      3.403      5.673
REMARK  Name = ./data/4wxx_site2_bc02/pdb/l1c0.pdb
REMARK  11 active torsions:
REMARK  status: ('A' for Active; 'I' for Inactive)
REMARK    1  A    between atoms: O1_2  and  C2_3
REMARK    2  A    between atoms: C5_6  and  C6_7
REMARK    3  A    between atoms: N2_9  and  C7_10
REMARK    4  A    between atoms: C22_26  and  O3_27
REMARK    5  A    between atoms: O3_27  and  C23_28
REMARK    6  A    between atoms: C23_28  and  C24_29
REMARK    7  A    between atoms: C24_29  and  C25_30
REMARK    8  A    between atoms: C25_30  and  C26_31
REMARK    9  A    between atoms: C26_31  and  O4_32
REMARK   10  A    between atoms: O4_32  and  C27_33
REMARK   11  A    between atoms: C30_36  and  C31_37
REMARK                            x       y       z     vdW  Elec       q    Type
REMARK                         _______ _______ _______ _____ _____    ______ ____
ROOT
ATOM      1  C2  UNL     1     -49.749  62.165   6.697  0.00  0.00    +0.172 A 
ATOM      2  C3  UNL     1     -48.475  62.053   6.116  0.00  0.00    +0.040 A 
ATOM      3  C4  UNL     1     -47.776  60.847   6.173  0.00  0.00    +0.005 A 
ATOM      4  C5  UNL     1     -48.330  59.719   6.804  0.00  0.00    +0.018 A 
ATOM      5  C21 UNL     1     -49.613  59.833   7.372  0.00  0.00    +0.041 A 
ATOM      6  C22 UNL     1     -50.316  61.056   7.341  0.00  0.00    +0.172 A 
ENDROOT
BRANCH   4   7
ATOM      7  C6  UNL     1     -47.557  58.440   6.851  0.00  0.00    +0.079 C 
ATOM      8  N1  UNL     1     -48.008  57.415   6.189  0.00  0.00    -0.172 NA
ATOM      9  N2  UNL     1     -47.375  56.155   6.151  0.00  0.00    -0.222 N 
ATOM     10  C14 UNL     1     -46.138  56.010   6.570  0.00  0.00    +0.253 C 
ATOM     11  O2  UNL     1     -45.500  54.773   6.429  0.00  0.00    -0.271 OA
ATOM     12  C15 UNL     1     -45.372  57.205   7.125  0.00  0.00    +0.091 C 
ATOM     13  C16 UNL     1     -44.335  56.817   8.199  0.00  0.00    +0.035 C 
ATOM     14  C17 UNL     1     -45.033  56.194   9.369  0.00  0.00    -0.030 C 
ATOM     15  C18 UNL     1     -46.186  56.714   9.810  0.00  0.00    -0.030 C 
ATOM     16  C19 UNL     1     -46.768  57.972   9.208  0.00  0.00    +0.032 C 
ATOM     17  C20 UNL     1     -46.338  58.263   7.731  0.00  0.00    +0.056 C 
BRANCH   9  18
ATOM     18  C7  UNL     1     -48.149  55.047   5.550  0.00  0.00    +0.108 C 
ATOM     19  C8  UNL     1     -49.651  55.147   5.927  0.00  0.00    +0.024 C 
ATOM     20  C9  UNL     1     -50.326  53.770   6.030  0.00  0.00    +0.002 C 
ATOM     21  C10 UNL     1     -50.670  53.153   4.671  0.00  0.00    +0.000 C 
ATOM     22  C11 UNL     1     -49.446  52.928   3.773  0.00  0.00    +0.000 C 
ATOM     23  C12 UNL     1     -48.916  54.241   3.174  0.00  0.00    +0.002 C 
ATOM     24  C13 UNL     1     -47.843  54.931   4.032  0.00  0.00    +0.024 C 
ENDBRANCH   9  18
ENDBRANCH   4   7
BRANCH   1  26
ATOM     25  C1  UNL     1     -49.957  64.638   7.006  0.00  0.00    +0.253 C 
ATOM     26  O1  UNL     1     -50.483  63.361   6.659  0.00  0.00    -0.468 OA
ENDBRANCH   1  26
BRANCH   6  27
ATOM     27  O3  UNL     1     -51.581  61.215   7.932  0.00  0.00    -0.472 OA
BRANCH  27  28
ATOM     28  C23 UNL     1     -51.903  62.129   8.981  0.00  0.00    +0.206 C 
BRANCH  28  29
ATOM     29  C24 UNL     1     -53.147  62.945   8.620  0.00  0.00    +0.051 C 
BRANCH  29  30
ATOM     30  C25 UNL     1     -54.432  62.172   8.939  0.00  0.00    +0.051 C 
BRANCH  30  31
ATOM     31  C26 UNL     1     -54.902  61.353   7.737  0.00  0.00    +0.206 C 
BRANCH  31  32
ATOM     32  O4  UNL     1     -54.560  59.982   7.936  0.00  0.00    -0.475 OA
BRANCH  32  33
ATOM     33  C27 UNL     1     -54.218  59.086   6.914  0.00  0.00    +0.139 A 
ATOM     34  C28 UNL     1     -54.739  57.792   6.971  0.00  0.00    +0.037 A 
ATOM     35  C29 UNL     1     -54.407  56.847   5.999  0.00  0.00    +0.006 A 
ATOM     36  C30 UNL     1     -53.555  57.187   4.931  0.00  0.00    +0.040 A 
ATOM     37  C32 UNL     1     -53.051  58.501   4.860  0.00  0.00    +0.006 A 
ATOM     38  C33 UNL     1     -53.374  59.440   5.846  0.00  0.00    +0.037 A 
BRANCH  36  39
ATOM     39  C31 UNL     1     -53.190  56.177   3.903  0.00  0.00    +0.208 A 
ATOM     40  N3  UNL     1     -53.923  55.088   3.582  0.00  0.00    -0.106 NA
ATOM     41  N4  UNL     1     -53.256  54.479   2.616  0.00  0.00    -0.021 NA
ATOM     42  N5  UNL     1     -52.153  55.155   2.346  0.00  0.00    -0.021 NA
ATOM     43  N6  UNL     1     -52.084  56.217   3.127  0.00  0.00    -0.106 NA
ENDBRANCH  36  39
ENDBRANCH  32  33
ENDBRANCH  31  32
ENDBRANCH  30  31
ENDBRANCH  29  30
ENDBRANCH  28  29
ENDBRANCH  27  28
ENDBRANCH   6  27
TORSDOF 11
ENDMDL
MODEL 8
REMARK VINA RESULT:      -8.4      2.713      9.079
REMARK  Name = ./data/4wxx_site2_bc02/pdb/l1c0.pdb
REMARK  11 active torsions:
REMARK  status: ('A' for Active; 'I' for Inactive)
REMARK    1  A    between atoms: O1_2  and  C2_3
REMARK    2  A    between atoms: C5_6  and  C6_7
REMARK    3  A    between atoms: N2_9  and  C7_10
REMARK    4  A    between atoms: C22_26  and  O3_27
REMARK    5  A    between atoms: O3_27  and  C23_28
REMARK    6  A    between atoms: C23_28  and  C24_29
REMARK    7  A    between atoms: C24_29  and  C25_30
REMARK    8  A    between atoms: C25_30  and  C26_31
REMARK    9  A    between atoms: C26_31  and  O4_32
REMARK   10  A    between atoms: O4_32  and  C27_33
REMARK   11  A    between atoms: C30_36  and  C31_37
REMARK                            x       y       z     vdW  Elec       q    Type
REMARK                         _______ _______ _______ _____ _____    ______ ____
ROOT
ATOM      1  C2  UNL     1     -46.542  57.227   7.872  0.00  0.00    +0.172 A 
ATOM      2  C3  UNL     1     -46.585  58.385   8.666  0.00  0.00    +0.040 A 
ATOM      3  C4  UNL     1     -47.353  59.482   8.276  0.00  0.00    +0.005 A 
ATOM      4  C5  UNL     1     -48.105  59.452   7.088  0.00  0.00    +0.018 A 
ATOM      5  C21 UNL     1     -48.069  58.284   6.302  0.00  0.00    +0.041 A 
ATOM      6  C22 UNL     1     -47.275  57.180   6.677  0.00  0.00    +0.172 A 
ENDROOT
BRANCH   4   7
ATOM      7  C6  UNL     1     -48.919  60.643   6.694  0.00  0.00    +0.079 C 
ATOM      8  N1  UNL     1     -48.327  61.630   6.087  0.00  0.00    -0.172 NA
ATOM      9  N2  UNL     1     -48.979  62.806   5.664  0.00  0.00    -0.222 N 
ATOM     10  C14 UNL     1     -50.291  62.869   5.617  0.00  0.00    +0.253 C 
ATOM     11  O2  UNL     1     -50.911  64.011   5.099  0.00  0.00    -0.271 OA
ATOM     12  C15 UNL     1     -51.131  61.671   6.042  0.00  0.00    +0.091 C 
ATOM     13  C16 UNL     1     -52.498  62.066   6.639  0.00  0.00    +0.035 C 
ATOM     14  C17 UNL     1     -52.286  62.883   7.877  0.00  0.00    -0.030 C 
ATOM     15  C18 UNL     1     -51.331  62.535   8.748  0.00  0.00    -0.030 C 
ATOM     16  C19 UNL     1     -50.504  61.285   8.558  0.00  0.00    +0.032 C 
ATOM     17  C20 UNL     1     -50.376  60.790   7.078  0.00  0.00    +0.056 C 
BRANCH   9  18
ATOM     18  C7  UNL     1     -48.111  63.914   5.212  0.00  0.00    +0.108 C 
ATOM     19  C8  UNL     1     -48.956  65.134   4.754  0.00  0.00    +0.024 C 
ATOM     20  C9  UNL     1     -48.276  65.935   3.632  0.00  0.00    +0.002 C 
ATOM     21  C10 UNL     1     -47.153  66.851   4.128  0.00  0.00    +0.000 C 
ATOM     22  C11 UNL     1     -46.011  66.100   4.826  0.00  0.00    +0.000 C 
ATOM     23  C12 UNL     1     -46.405  65.625   6.234  0.00  0.00    +0.002 C 
ATOM     24  C13 UNL     1     -47.015  64.215   6.270  0.00  0.00    +0.024 C 
ENDBRANCH   9  18
ENDBRANCH   4   7
BRANCH   1  26
ATOM     25  C1  UNL     1     -44.490  55.807   7.712  0.00  0.00    +0.253 C 
ATOM     26  O1  UNL     1     -45.782  56.103   8.232  0.00  0.00    -0.468 OA
ENDBRANCH   1  26
BRANCH   6  27
ATOM     27  O3  UNL     1     -47.187  56.015   5.897  0.00  0.00    -0.472 OA
BRANCH  27  28
ATOM     28  C23 UNL     1     -48.271  55.378   5.221  0.00  0.00    +0.206 C 
BRANCH  28  29
ATOM     29  C24 UNL     1     -48.115  53.856   5.265  0.00  0.00    +0.051 C 
BRANCH  29  30
ATOM     30  C25 UNL     1     -49.480  53.156   5.254  0.00  0.00    +0.051 C 
BRANCH  30  31
ATOM     31  C26 UNL     1     -49.994  52.960   3.829  0.00  0.00    +0.206 C 
BRANCH  31  32
ATOM     32  O4  UNL     1     -51.409  53.143   3.807  0.00  0.00    -0.475 OA
BRANCH  32  33
ATOM     33  C27 UNL     1     -52.080  54.253   4.336  0.00  0.00    +0.139 A 
ATOM     34  C28 UNL     1     -51.903  55.489   3.710  0.00  0.00    +0.037 A 
ATOM     35  C29 UNL     1     -52.519  56.636   4.213  0.00  0.00    +0.006 A 
ATOM     36  C30 UNL     1     -53.347  56.566   5.350  0.00  0.00    +0.040 A 
ATOM     37  C32 UNL     1     -53.545  55.313   5.965  0.00  0.00    +0.006 A 
ATOM     38  C33 UNL     1     -52.913  54.169   5.467  0.00  0.00    +0.037 A 
BRANCH  36  39
ATOM     39  C31 UNL     1     -53.992  57.789   5.893  0.00  0.00    +0.208 A 
ATOM     40  N3  UNL     1     -54.337  58.877   5.171  0.00  0.00    -0.106 NA
ATOM     41  N4  UNL     1     -54.897  59.714   6.028  0.00  0.00    -0.021 NA
ATOM     42  N5  UNL     1     -54.899  59.176   7.235  0.00  0.00    -0.021 NA
ATOM     43  N6  UNL     1     -54.346  57.979   7.184  0.00  0.00    -0.106 NA
ENDBRANCH  36  39
ENDBRANCH  32  33
ENDBRANCH  31  32
ENDBRANCH  30  31
ENDBRANCH  29  30
ENDBRANCH  28  29
ENDBRANCH  27  28
ENDBRANCH   6  27
TORSDOF 11
ENDMDL
MODEL 9
REMARK VINA RESULT:      -8.2      3.211      4.867
REMARK  Name = ./data/4wxx_site2_bc02/pdb/l1c0.pdb
REMARK  11 active torsions:
REMARK  status: ('A' for Active; 'I' for Inactive)
REMARK    1  A    between atoms: O1_2  and  C2_3
REMARK    2  A    between atoms: C5_6  and  C6_7
REMARK    3  A    between atoms: N2_9  and  C7_10
REMARK    4  A    between atoms: C22_26  and  O3_27
REMARK    5  A    between atoms: O3_27  and  C23_28
REMARK    6  A    between atoms: C23_28  and  C24_29
REMARK    7  A    between atoms: C24_29  and  C25_30
REMARK    8  A    between atoms: C25_30  and  C26_31
REMARK    9  A    between atoms: C26_31  and  O4_32
REMARK   10  A    between atoms: O4_32  and  C27_33
REMARK   11  A    between atoms: C30_36  and  C31_37
REMARK                            x       y       z     vdW  Elec       q    Type
REMARK                         _______ _______ _______ _____ _____    ______ ____
ROOT
ATOM      1  C2  UNL     1     -48.653  64.875   5.184  0.00  0.00    +0.172 A 
ATOM      2  C3  UNL     1     -47.681  64.269   5.996  0.00  0.00    +0.040 A 
ATOM      3  C4  UNL     1     -47.763  62.910   6.302  0.00  0.00    +0.005 A 
ATOM      4  C5  UNL     1     -48.810  62.118   5.801  0.00  0.00    +0.018 A 
ATOM      5  C21 UNL     1     -49.775  62.728   4.976  0.00  0.00    +0.041 A 
ATOM      6  C22 UNL     1     -49.713  64.107   4.683  0.00  0.00    +0.172 A 
ENDROOT
BRANCH   4   7
ATOM      7  C6  UNL     1     -48.873  60.664   6.146  0.00  0.00    +0.079 C 
ATOM      8  N1  UNL     1     -49.947  59.996   5.840  0.00  0.00    -0.172 NA
ATOM      9  N2  UNL     1     -50.131  58.625   6.110  0.00  0.00    -0.222 N 
ATOM     10  C14 UNL     1     -49.116  57.863   6.451  0.00  0.00    +0.253 C 
ATOM     11  O2  UNL     1     -49.308  56.487   6.615  0.00  0.00    -0.271 OA
ATOM     12  C15 UNL     1     -47.720  58.460   6.582  0.00  0.00    +0.091 C 
ATOM     13  C16 UNL     1     -46.847  57.745   7.634  0.00  0.00    +0.035 C 
ATOM     14  C17 UNL     1     -47.483  57.878   8.985  0.00  0.00    -0.030 C 
ATOM     15  C18 UNL     1     -48.028  59.044   9.352  0.00  0.00    -0.030 C 
ATOM     16  C19 UNL     1     -47.950  60.267   8.468  0.00  0.00    +0.032 C 
ATOM     17  C20 UNL     1     -47.784  59.973   6.939  0.00  0.00    +0.056 C 
BRANCH   9  18
ATOM     18  C7  UNL     1     -51.496  58.092   5.912  0.00  0.00    +0.108 C 
ATOM     19  C8  UNL     1     -52.523  59.242   5.728  0.00  0.00    +0.024 C 
ATOM     20  C9  UNL     1     -53.915  58.881   6.269  0.00  0.00    +0.002 C 
ATOM     21  C10 UNL     1     -54.717  57.967   5.338  0.00  0.00    +0.000 C 
ATOM     22  C11 UNL     1     -54.036  56.619   5.067  0.00  0.00    +0.000 C 
ATOM     23  C12 UNL     1     -52.846  56.753   4.103  0.00  0.00    +0.002 C 
ATOM     24  C13 UNL     1     -51.501  57.004   4.803  0.00  0.00    +0.024 C 
ENDBRANCH   9  18
ENDBRANCH   4   7
BRANCH   1  26
ATOM     25  C1  UNL     1     -47.566  66.843   4.090  0.00  0.00    +0.253 C 
ATOM     26  O1  UNL     1     -48.604  66.238   4.854  0.00  0.00    -0.468 OA
ENDBRANCH   1  26
BRANCH   6  27
ATOM     27  O3  UNL     1     -50.681  64.754   3.896  0.00  0.00    -0.472 OA
BRANCH  27  28
ATOM     28  C23 UNL     1     -51.489  64.139   2.893  0.00  0.00    +0.206 C 
BRANCH  28  29
ATOM     29  C24 UNL     1     -52.038  65.189   1.923  0.00  0.00    +0.051 C 
BRANCH  29  30
ATOM     30  C25 UNL     1     -52.791  66.296   2.670  0.00  0.00    +0.051 C 
BRANCH  30  31
ATOM     31  C26 UNL     1     -54.264  65.938   2.861  0.00  0.00    +0.206 C 
BRANCH  31  32
ATOM     32  O4  UNL     1     -54.578  65.954   4.253  0.00  0.00    -0.475 OA
BRANCH  32  33
ATOM     33  C27 UNL     1     -54.065  65.057   5.199  0.00  0.00    +0.139 A 
ATOM     34  C28 UNL     1     -54.272  63.691   4.992  0.00  0.00    +0.037 A 
ATOM     35  C29 UNL     1     -53.813  62.753   5.917  0.00  0.00    +0.006 A 
ATOM     36  C30 UNL     1     -53.116  63.165   7.070  0.00  0.00    +0.040 A 
ATOM     37  C32 UNL     1     -52.886  64.541   7.264  0.00  0.00    +0.006 A 
ATOM     38  C33 UNL     1     -53.361  65.479   6.342  0.00  0.00    +0.037 A 
BRANCH  36  39
ATOM     39  C31 UNL     1     -52.639  62.167   8.062  0.00  0.00    +0.208 A 
ATOM     40  N3  UNL     1     -51.346  61.916   8.360  0.00  0.00    -0.106 NA
ATOM     41  N4  UNL     1     -51.368  60.985   9.299  0.00  0.00    -0.021 NA
ATOM     42  N5  UNL     1     -52.620  60.664   9.575  0.00  0.00    -0.021 NA
ATOM     43  N6  UNL     1     -53.435  61.383   8.825  0.00  0.00    -0.106 NA
ENDBRANCH  36  39
ENDBRANCH  32  33
ENDBRANCH  31  32
ENDBRANCH  30  31
ENDBRANCH  29  30
ENDBRANCH  28  29
ENDBRANCH  27  28
ENDBRANCH   6  27
TORSDOF 11
ENDMDL
