MODEL 1
REMARK VINA RESULT:      -9.4      0.000      0.000
REMARK  Name = ./data/4wxx_site2_bc02/pdb/l1c2.pdb
REMARK  11 active torsions:
REMARK  status: ('A' for Active; 'I' for Inactive)
REMARK    1  A    between atoms: O1_2  and  C2_3
REMARK    2  A    between atoms: C5_6  and  C6_7
REMARK    3  A    between atoms: N2_9  and  C7_10
REMARK    4  A    between atoms: C22_26  and  O3_27
REMARK    5  A    between atoms: O3_27  and  C23_28
REMARK    6  A    between atoms: C23_28  and  C24_29
REMARK    7  A    between atoms: C24_29  and  C25_30
REMARK    8  A    between atoms: C25_30  and  C26_31
REMARK    9  A    between atoms: C26_31  and  O4_32
REMARK   10  A    between atoms: O4_32  and  C27_33
REMARK   11  A    between atoms: C30_36  and  C31_37
REMARK                            x       y       z     vdW  Elec       q    Type
REMARK                         _______ _______ _______ _____ _____    ______ ____
ROOT
ATOM      1  C2  UNL     1     -48.779  59.242  10.422  0.00  0.00    +0.172 A 
ATOM      2  C3  UNL     1     -49.614  60.355  10.645  0.00  0.00    +0.040 A 
ATOM      3  C4  UNL     1     -49.995  61.177   9.583  0.00  0.00    +0.005 A 
ATOM      4  C5  UNL     1     -49.565  60.893   8.280  0.00  0.00    +0.018 A 
ATOM      5  C21 UNL     1     -48.703  59.807   8.061  0.00  0.00    +0.041 A 
ATOM      6  C22 UNL     1     -48.320  58.966   9.123  0.00  0.00    +0.172 A 
ENDROOT
BRANCH   4   7
ATOM      7  C6  UNL     1     -49.982  61.722   7.135  0.00  0.00    +0.079 C 
ATOM      8  N1  UNL     1     -49.203  62.704   6.782  0.00  0.00    -0.172 NA
ATOM      9  N2  UNL     1     -49.372  63.443   5.587  0.00  0.00    -0.222 N 
ATOM     10  C14 UNL     1     -50.488  63.339   4.894  0.00  0.00    +0.253 C 
ATOM     11  O2  UNL     1     -50.666  64.036   3.697  0.00  0.00    -0.271 OA
ATOM     12  C15 UNL     1     -51.614  62.476   5.410  0.00  0.00    +0.091 C 
ATOM     13  C16 UNL     1     -52.522  63.307   6.337  0.00  0.00    +0.035 C 
ATOM     14  C17 UNL     1     -53.447  62.465   7.175  0.00  0.00    -0.030 C 
ATOM     15  C18 UNL     1     -53.219  61.169   7.427  0.00  0.00    -0.030 C 
ATOM     16  C19 UNL     1     -52.163  60.376   6.704  0.00  0.00    +0.032 C 
ATOM     17  C20 UNL     1     -51.028  61.254   6.138  0.00  0.00    +0.056 C 
BRANCH   9  18
ATOM     18  C7  UNL     1     -48.214  64.247   5.140  0.00  0.00    +0.108 C 
ATOM     19  C8  UNL     1     -47.166  64.400   6.265  0.00  0.00    +0.024 C 
ATOM     20  C9  UNL     1     -45.902  65.160   5.828  0.00  0.00    +0.002 C 
ATOM     21  C10 UNL     1     -46.144  66.676   5.723  0.00  0.00    +0.000 C 
ATOM     22  C11 UNL     1     -46.638  67.155   4.343  0.00  0.00    +0.000 C 
ATOM     23  C12 UNL     1     -47.617  66.220   3.609  0.00  0.00    +0.002 C 
ATOM     24  C13 UNL     1     -48.684  65.584   4.518  0.00  0.00    +0.024 C 
ENDBRANCH   9  18
ENDBRANCH   4   7
BRANCH   1  26
ATOM     25  C1  UNL     1     -48.413  58.727  12.844  0.00  0.00    +0.253 C 
ATOM     26  O1  UNL     1     -48.393  58.380  11.462  0.00  0.00    -0.468 OA
ENDBRANCH   1  26
BRANCH   6  27
ATOM     27  O3  UNL     1     -47.502  57.840   8.927  0.00  0.00    -0.472 OA
BRANCH  27  28
ATOM     28  C23 UNL     1     -46.118  57.887   8.584  0.00  0.00    +0.206 C 
BRANCH  28  29
ATOM     29  C24 UNL     1     -45.425  56.599   9.025  0.00  0.00    +0.051 C 
BRANCH  29  30
ATOM     30  C25 UNL     1     -44.999  55.757   7.813  0.00  0.00    +0.051 C 
BRANCH  30  31
ATOM     31  C26 UNL     1     -45.600  56.308   6.514  0.00  0.00    +0.206 C 
BRANCH  31  32
ATOM     32  O4  UNL     1     -46.413  55.321   5.877  0.00  0.00    -0.475 OA
BRANCH  32  33
ATOM     33  C27 UNL     1     -47.785  55.456   5.595  0.00  0.00    +0.139 A 
ATOM     34  C28 UNL     1     -48.534  54.461   4.935  0.00  0.00    +0.037 A 
ATOM     35  C29 UNL     1     -49.888  54.666   4.653  0.00  0.00    +0.006 A 
ATOM     36  C30 UNL     1     -50.523  55.857   5.039  0.00  0.00    +0.040 A 
ATOM     37  C32 UNL     1     -49.777  56.841   5.709  0.00  0.00    +0.006 A 
ATOM     38  C33 UNL     1     -48.423  56.641   5.983  0.00  0.00    +0.037 A 
BRANCH  36  39
ATOM     39  C31 UNL     1     -51.957  56.072   4.745  0.00  0.00    +0.208 A 
ATOM     40  N3  UNL     1     -52.646  57.199   5.022  0.00  0.00    -0.106 NA
ATOM     41  N4  UNL     1     -53.882  56.973   4.614  0.00  0.00    -0.021 NA
ATOM     42  N5  UNL     1     -53.965  55.759   4.099  0.00  0.00    -0.021 NA
ATOM     43  N6  UNL     1     -52.782  55.172   4.166  0.00  0.00    -0.106 NA
ENDBRANCH  36  39
ENDBRANCH  32  33
ENDBRANCH  31  32
ENDBRANCH  30  31
ENDBRANCH  29  30
ENDBRANCH  28  29
ENDBRANCH  27  28
ENDBRANCH   6  27
TORSDOF 11
ENDMDL
MODEL 2
REMARK VINA RESULT:      -9.2      2.586      9.542
REMARK  Name = ./data/4wxx_site2_bc02/pdb/l1c2.pdb
REMARK  11 active torsions:
REMARK  status: ('A' for Active; 'I' for Inactive)
REMARK    1  A    between atoms: O1_2  and  C2_3
REMARK    2  A    between atoms: C5_6  and  C6_7
REMARK    3  A    between atoms: N2_9  and  C7_10
REMARK    4  A    between atoms: C22_26  and  O3_27
REMARK    5  A    between atoms: O3_27  and  C23_28
REMARK    6  A    between atoms: C23_28  and  C24_29
REMARK    7  A    between atoms: C24_29  and  C25_30
REMARK    8  A    between atoms: C25_30  and  C26_31
REMARK    9  A    between atoms: C26_31  and  O4_32
REMARK   10  A    between atoms: O4_32  and  C27_33
REMARK   11  A    between atoms: C30_36  and  C31_37
REMARK                            x       y       z     vdW  Elec       q    Type
REMARK                         _______ _______ _______ _____ _____    ______ ____
ROOT
ATOM      1  C2  UNL     1     -52.409  62.887   7.154  0.00  0.00    +0.172 A 
ATOM      2  C3  UNL     1     -51.771  62.225   8.222  0.00  0.00    +0.040 A 
ATOM      3  C4  UNL     1     -51.095  61.022   8.007  0.00  0.00    +0.005 A 
ATOM      4  C5  UNL     1     -51.029  60.470   6.721  0.00  0.00    +0.018 A 
ATOM      5  C21 UNL     1     -51.695  61.107   5.663  0.00  0.00    +0.041 A 
ATOM      6  C22 UNL     1     -52.371  62.325   5.867  0.00  0.00    +0.172 A 
ENDROOT
BRANCH   4   7
ATOM      7  C6  UNL     1     -50.291  59.221   6.458  0.00  0.00    +0.079 C 
ATOM      8  N1  UNL     1     -50.979  58.121   6.357  0.00  0.00    -0.172 NA
ATOM      9  N2  UNL     1     -50.432  56.896   5.905  0.00  0.00    -0.222 N 
ATOM     10  C14 UNL     1     -49.126  56.749   5.808  0.00  0.00    +0.253 C 
ATOM     11  O2  UNL     1     -48.563  55.561   5.338  0.00  0.00    -0.271 OA
ATOM     12  C15 UNL     1     -48.210  57.869   6.240  0.00  0.00    +0.091 C 
ATOM     13  C16 UNL     1     -47.896  57.734   7.743  0.00  0.00    +0.035 C 
ATOM     14  C17 UNL     1     -47.299  58.979   8.340  0.00  0.00    -0.030 C 
ATOM     15  C18 UNL     1     -47.429  60.189   7.777  0.00  0.00    -0.030 C 
ATOM     16  C19 UNL     1     -47.967  60.381   6.385  0.00  0.00    +0.032 C 
ATOM     17  C20 UNL     1     -48.871  59.221   5.920  0.00  0.00    +0.056 C 
BRANCH   9  18
ATOM     18  C7  UNL     1     -51.396  55.859   5.483  0.00  0.00    +0.108 C 
ATOM     19  C8  UNL     1     -51.056  54.486   6.104  0.00  0.00    +0.024 C 
ATOM     20  C9  UNL     1     -52.076  53.385   5.761  0.00  0.00    +0.002 C 
ATOM     21  C10 UNL     1     -51.915  52.875   4.319  0.00  0.00    +0.000 C 
ATOM     22  C11 UNL     1     -52.733  53.649   3.266  0.00  0.00    +0.000 C 
ATOM     23  C12 UNL     1     -52.849  55.170   3.480  0.00  0.00    +0.002 C 
ATOM     24  C13 UNL     1     -51.543  55.844   3.942  0.00  0.00    +0.024 C 
ENDBRANCH   9  18
ENDBRANCH   4   7
BRANCH   1  26
ATOM     25  C1  UNL     1     -52.438  65.338   7.658  0.00  0.00    +0.253 C 
ATOM     26  O1  UNL     1     -53.079  64.109   7.328  0.00  0.00    -0.468 OA
ENDBRANCH   1  26
BRANCH   6  27
ATOM     27  O3  UNL     1     -53.001  63.015   4.817  0.00  0.00    -0.472 OA
BRANCH  27  28
ATOM     28  C23 UNL     1     -53.854  62.415   3.843  0.00  0.00    +0.206 C 
BRANCH  28  29
ATOM     29  C24 UNL     1     -53.965  63.319   2.615  0.00  0.00    +0.051 C 
BRANCH  29  30
ATOM     30  C25 UNL     1     -52.957  62.906   1.532  0.00  0.00    +0.051 C 
BRANCH  30  31
ATOM     31  C26 UNL     1     -52.465  64.122   0.738  0.00  0.00    +0.206 C 
BRANCH  31  32
ATOM     32  O4  UNL     1     -52.185  65.216   1.614  0.00  0.00    -0.475 OA
BRANCH  32  33
ATOM     33  C27 UNL     1     -51.004  65.377   2.361  0.00  0.00    +0.139 A 
ATOM     34  C28 UNL     1     -50.594  64.464   3.353  0.00  0.00    +0.037 A 
ATOM     35  C29 UNL     1     -49.426  64.695   4.087  0.00  0.00    +0.006 A 
ATOM     36  C30 UNL     1     -48.639  65.830   3.833  0.00  0.00    +0.040 A 
ATOM     37  C32 UNL     1     -49.043  66.730   2.834  0.00  0.00    +0.006 A 
ATOM     38  C33 UNL     1     -50.214  66.505   2.107  0.00  0.00    +0.037 A 
BRANCH  36  39
ATOM     39  C31 UNL     1     -47.401  66.071   4.606  0.00  0.00    +0.208 A 
ATOM     40  N3  UNL     1     -46.430  66.943   4.263  0.00  0.00    -0.106 NA
ATOM     41  N4  UNL     1     -45.508  66.842   5.206  0.00  0.00    -0.021 NA
ATOM     42  N5  UNL     1     -45.887  65.951   6.103  0.00  0.00    -0.021 NA
ATOM     43  N6  UNL     1     -47.062  65.451   5.758  0.00  0.00    -0.106 NA
ENDBRANCH  36  39
ENDBRANCH  32  33
ENDBRANCH  31  32
ENDBRANCH  30  31
ENDBRANCH  29  30
ENDBRANCH  28  29
ENDBRANCH  27  28
ENDBRANCH   6  27
TORSDOF 11
ENDMDL
MODEL 3
REMARK VINA RESULT:      -8.9      2.407      8.073
REMARK  Name = ./data/4wxx_site2_bc02/pdb/l1c2.pdb
REMARK  11 active torsions:
REMARK  status: ('A' for Active; 'I' for Inactive)
REMARK    1  A    between atoms: O1_2  and  C2_3
REMARK    2  A    between atoms: C5_6  and  C6_7
REMARK    3  A    between atoms: N2_9  and  C7_10
REMARK    4  A    between atoms: C22_26  and  O3_27
REMARK    5  A    between atoms: O3_27  and  C23_28
REMARK    6  A    between atoms: C23_28  and  C24_29
REMARK    7  A    between atoms: C24_29  and  C25_30
REMARK    8  A    between atoms: C25_30  and  C26_31
REMARK    9  A    between atoms: C26_31  and  O4_32
REMARK   10  A    between atoms: O4_32  and  C27_33
REMARK   11  A    between atoms: C30_36  and  C31_37
REMARK                            x       y       z     vdW  Elec       q    Type
REMARK                         _______ _______ _______ _____ _____    ______ ____
ROOT
ATOM      1  C2  UNL     1     -46.169  56.824   7.060  0.00  0.00    +0.172 A 
ATOM      2  C3  UNL     1     -46.380  55.839   6.075  0.00  0.00    +0.040 A 
ATOM      3  C4  UNL     1     -47.656  55.624   5.551  0.00  0.00    +0.005 A 
ATOM      4  C5  UNL     1     -48.738  56.400   5.987  0.00  0.00    +0.018 A 
ATOM      5  C21 UNL     1     -48.539  57.356   6.995  0.00  0.00    +0.041 A 
ATOM      6  C22 UNL     1     -47.254  57.587   7.524  0.00  0.00    +0.172 A 
ENDROOT
BRANCH   4   7
ATOM      7  C6  UNL     1     -50.089  56.220   5.425  0.00  0.00    +0.079 C 
ATOM      8  N1  UNL     1     -51.028  57.024   5.833  0.00  0.00    -0.172 NA
ATOM      9  N2  UNL     1     -52.307  57.100   5.232  0.00  0.00    -0.222 N 
ATOM     10  C14 UNL     1     -52.698  56.170   4.385  0.00  0.00    +0.253 C 
ATOM     11  O2  UNL     1     -53.944  56.238   3.757  0.00  0.00    -0.271 OA
ATOM     12  C15 UNL     1     -51.804  54.987   4.103  0.00  0.00    +0.091 C 
ATOM     13  C16 UNL     1     -52.084  53.868   5.126  0.00  0.00    +0.035 C 
ATOM     14  C17 UNL     1     -51.015  52.810   5.158  0.00  0.00    -0.030 C 
ATOM     15  C18 UNL     1     -49.773  53.019   4.701  0.00  0.00    -0.030 C 
ATOM     16  C19 UNL     1     -49.400  54.235   3.896  0.00  0.00    +0.032 C 
ATOM     17  C20 UNL     1     -50.334  55.437   4.147  0.00  0.00    +0.056 C 
BRANCH   9  18
ATOM     18  C7  UNL     1     -53.111  58.300   5.544  0.00  0.00    +0.108 C 
ATOM     19  C8  UNL     1     -52.985  59.368   4.435  0.00  0.00    +0.024 C 
ATOM     20  C9  UNL     1     -53.867  60.607   4.670  0.00  0.00    +0.002 C 
ATOM     21  C10 UNL     1     -53.288  61.534   5.754  0.00  0.00    +0.000 C 
ATOM     22  C11 UNL     1     -53.748  61.211   7.190  0.00  0.00    +0.000 C 
ATOM     23  C12 UNL     1     -53.907  59.717   7.533  0.00  0.00    +0.002 C 
ATOM     24  C13 UNL     1     -52.793  58.818   6.968  0.00  0.00    +0.024 C 
ENDBRANCH   9  18
ENDBRANCH   4   7
BRANCH   1  26
ATOM     25  C1  UNL     1     -44.145  56.154   8.371  0.00  0.00    +0.253 C 
ATOM     26  O1  UNL     1     -44.897  57.084   7.595  0.00  0.00    -0.468 OA
ENDBRANCH   1  26
BRANCH   6  27
ATOM     27  O3  UNL     1     -47.013  58.574   8.495  0.00  0.00    -0.472 OA
BRANCH  27  28
ATOM     28  C23 UNL     1     -47.722  59.808   8.597  0.00  0.00    +0.206 C 
BRANCH  28  29
ATOM     29  C24 UNL     1     -48.940  59.639   9.505  0.00  0.00    +0.051 C 
BRANCH  29  30
ATOM     30  C25 UNL     1     -49.510  61.002   9.924  0.00  0.00    +0.051 C 
BRANCH  30  31
ATOM     31  C26 UNL     1     -50.817  61.310   9.182  0.00  0.00    +0.206 C 
BRANCH  31  32
ATOM     32  O4  UNL     1     -50.573  61.486   7.785  0.00  0.00    -0.475 OA
BRANCH  32  33
ATOM     33  C27 UNL     1     -49.812  62.524   7.217  0.00  0.00    +0.139 A 
ATOM     34  C28 UNL     1     -50.255  63.862   7.170  0.00  0.00    +0.037 A 
ATOM     35  C29 UNL     1     -49.468  64.845   6.562  0.00  0.00    +0.006 A 
ATOM     36  C30 UNL     1     -48.221  64.517   6.007  0.00  0.00    +0.040 A 
ATOM     37  C32 UNL     1     -47.777  63.186   6.069  0.00  0.00    +0.006 A 
ATOM     38  C33 UNL     1     -48.566  62.201   6.668  0.00  0.00    +0.037 A 
BRANCH  36  39
ATOM     39  C31 UNL     1     -47.387  65.558   5.369  0.00  0.00    +0.208 A 
ATOM     40  N3  UNL     1     -46.227  66.036   5.866  0.00  0.00    -0.106 NA
ATOM     41  N4  UNL     1     -45.816  66.950   5.004  0.00  0.00    -0.021 NA
ATOM     42  N5  UNL     1     -46.678  67.038   4.007  0.00  0.00    -0.021 NA
ATOM     43  N6  UNL     1     -47.669  66.185   4.205  0.00  0.00    -0.106 NA
ENDBRANCH  36  39
ENDBRANCH  32  33
ENDBRANCH  31  32
ENDBRANCH  30  31
ENDBRANCH  29  30
ENDBRANCH  28  29
ENDBRANCH  27  28
ENDBRANCH   6  27
TORSDOF 11
ENDMDL
MODEL 4
REMARK VINA RESULT:      -7.8      2.216      6.898
REMARK  Name = ./data/4wxx_site2_bc02/pdb/l1c2.pdb
REMARK  11 active torsions:
REMARK  status: ('A' for Active; 'I' for Inactive)
REMARK    1  A    between atoms: O1_2  and  C2_3
REMARK    2  A    between atoms: C5_6  and  C6_7
REMARK    3  A    between atoms: N2_9  and  C7_10
REMARK    4  A    between atoms: C22_26  and  O3_27
REMARK    5  A    between atoms: O3_27  and  C23_28
REMARK    6  A    between atoms: C23_28  and  C24_29
REMARK    7  A    between atoms: C24_29  and  C25_30
REMARK    8  A    between atoms: C25_30  and  C26_31
REMARK    9  A    between atoms: C26_31  and  O4_32
REMARK   10  A    between atoms: O4_32  and  C27_33
REMARK   11  A    between atoms: C30_36  and  C31_37
REMARK                            x       y       z     vdW  Elec       q    Type
REMARK                         _______ _______ _______ _____ _____    ______ ____
ROOT
ATOM      1  C2  UNL     1     -49.522  64.813   4.107  0.00  0.00    +0.172 A 
ATOM      2  C3  UNL     1     -48.443  64.759   5.011  0.00  0.00    +0.040 A 
ATOM      3  C4  UNL     1     -48.461  63.865   6.083  0.00  0.00    +0.005 A 
ATOM      4  C5  UNL     1     -49.548  62.999   6.260  0.00  0.00    +0.018 A 
ATOM      5  C21 UNL     1     -50.641  63.077   5.384  0.00  0.00    +0.041 A 
ATOM      6  C22 UNL     1     -50.628  63.968   4.295  0.00  0.00    +0.172 A 
ENDROOT
BRANCH   4   7
ATOM      7  C6  UNL     1     -49.578  62.019   7.362  0.00  0.00    +0.079 C 
ATOM      8  N1  UNL     1     -48.797  60.982   7.272  0.00  0.00    -0.172 NA
ATOM      9  N2  UNL     1     -48.572  60.079   8.338  0.00  0.00    -0.222 N 
ATOM     10  C14 UNL     1     -49.349  60.102   9.402  0.00  0.00    +0.253 C 
ATOM     11  O2  UNL     1     -49.129  59.241  10.480  0.00  0.00    -0.271 OA
ATOM     12  C15 UNL     1     -50.521  61.053   9.456  0.00  0.00    +0.091 C 
ATOM     13  C16 UNL     1     -51.761  60.385   8.832  0.00  0.00    +0.035 C 
ATOM     14  C17 UNL     1     -52.864  61.358   8.513  0.00  0.00    -0.030 C 
ATOM     15  C18 UNL     1     -52.650  62.673   8.364  0.00  0.00    -0.030 C 
ATOM     16  C19 UNL     1     -51.350  63.330   8.739  0.00  0.00    +0.032 C 
ATOM     17  C20 UNL     1     -50.153  62.357   8.726  0.00  0.00    +0.056 C 
BRANCH   9  18
ATOM     18  C7  UNL     1     -47.393  59.196   8.217  0.00  0.00    +0.108 C 
ATOM     19  C8  UNL     1     -47.164  58.759   6.753  0.00  0.00    +0.024 C 
ATOM     20  C9  UNL     1     -45.900  57.903   6.556  0.00  0.00    +0.002 C 
ATOM     21  C10 UNL     1     -46.095  56.459   7.053  0.00  0.00    +0.000 C 
ATOM     22  C11 UNL     1     -45.744  56.236   8.537  0.00  0.00    +0.000 C 
ATOM     23  C12 UNL     1     -46.108  57.381   9.501  0.00  0.00    +0.002 C 
ATOM     24  C13 UNL     1     -47.479  58.026   9.227  0.00  0.00    +0.024 C 
ENDBRANCH   9  18
ENDBRANCH   4   7
BRANCH   1  26
ATOM     25  C1  UNL     1     -48.525  66.662   2.746  0.00  0.00    +0.253 C 
ATOM     26  O1  UNL     1     -49.529  65.684   3.005  0.00  0.00    -0.468 OA
ENDBRANCH   1  26
BRANCH   6  27
ATOM     27  O3  UNL     1     -51.684  64.031   3.368  0.00  0.00    -0.472 OA
BRANCH  27  28
ATOM     28  C23 UNL     1     -52.564  62.951   3.060  0.00  0.00    +0.206 C 
BRANCH  28  29
ATOM     29  C24 UNL     1     -53.877  63.110   3.825  0.00  0.00    +0.051 C 
BRANCH  29  30
ATOM     30  C25 UNL     1     -53.964  62.113   4.989  0.00  0.00    +0.051 C 
BRANCH  30  31
ATOM     31  C26 UNL     1     -53.560  60.702   4.545  0.00  0.00    +0.206 C 
BRANCH  31  32
ATOM     32  O4  UNL     1     -52.598  60.147   5.443  0.00  0.00    -0.475 OA
BRANCH  32  33
ATOM     33  C27 UNL     1     -52.146  58.815   5.430  0.00  0.00    +0.139 A 
ATOM     34  C28 UNL     1     -50.812  58.454   5.705  0.00  0.00    +0.037 A 
ATOM     35  C29 UNL     1     -50.414  57.115   5.644  0.00  0.00    +0.006 A 
ATOM     36  C30 UNL     1     -51.342  56.111   5.326  0.00  0.00    +0.040 A 
ATOM     37  C32 UNL     1     -52.675  56.472   5.067  0.00  0.00    +0.006 A 
ATOM     38  C33 UNL     1     -53.071  57.810   5.119  0.00  0.00    +0.037 A 
BRANCH  36  39
ATOM     39  C31 UNL     1     -50.923  54.694   5.267  0.00  0.00    +0.208 A 
ATOM     40  N3  UNL     1     -50.497  53.966   6.320  0.00  0.00    -0.106 NA
ATOM     41  N4  UNL     1     -50.214  52.768   5.838  0.00  0.00    -0.021 NA
ATOM     42  N5  UNL     1     -50.456  52.744   4.540  0.00  0.00    -0.021 NA
ATOM     43  N6  UNL     1     -50.899  53.929   4.153  0.00  0.00    -0.106 NA
ENDBRANCH  36  39
ENDBRANCH  32  33
ENDBRANCH  31  32
ENDBRANCH  30  31
ENDBRANCH  29  30
ENDBRANCH  28  29
ENDBRANCH  27  28
ENDBRANCH   6  27
TORSDOF 11
ENDMDL
MODEL 5
REMARK VINA RESULT:      -7.4      2.717      8.162
REMARK  Name = ./data/4wxx_site2_bc02/pdb/l1c2.pdb
REMARK  11 active torsions:
REMARK  status: ('A' for Active; 'I' for Inactive)
REMARK    1  A    between atoms: O1_2  and  C2_3
REMARK    2  A    between atoms: C5_6  and  C6_7
REMARK    3  A    between atoms: N2_9  and  C7_10
REMARK    4  A    between atoms: C22_26  and  O3_27
REMARK    5  A    between atoms: O3_27  and  C23_28
REMARK    6  A    between atoms: C23_28  and  C24_29
REMARK    7  A    between atoms: C24_29  and  C25_30
REMARK    8  A    between atoms: C25_30  and  C26_31
REMARK    9  A    between atoms: C26_31  and  O4_32
REMARK   10  A    between atoms: O4_32  and  C27_33
REMARK   11  A    between atoms: C30_36  and  C31_37
REMARK                            x       y       z     vdW  Elec       q    Type
REMARK                         _______ _______ _______ _____ _____    ______ ____
ROOT
ATOM      1  C2  UNL     1     -46.125  56.771   6.960  0.00  0.00    +0.172 A 
ATOM      2  C3  UNL     1     -46.388  55.699   6.085  0.00  0.00    +0.040 A 
ATOM      3  C4  UNL     1     -47.676  55.488   5.590  0.00  0.00    +0.005 A 
ATOM      4  C5  UNL     1     -48.719  56.353   5.946  0.00  0.00    +0.018 A 
ATOM      5  C21 UNL     1     -48.469  57.400   6.846  0.00  0.00    +0.041 A 
ATOM      6  C22 UNL     1     -47.171  57.627   7.343  0.00  0.00    +0.172 A 
ENDROOT
BRANCH   4   7
ATOM      7  C6  UNL     1     -50.081  56.176   5.409  0.00  0.00    +0.079 C 
ATOM      8  N1  UNL     1     -51.007  56.989   5.828  0.00  0.00    -0.172 NA
ATOM      9  N2  UNL     1     -52.297  57.068   5.250  0.00  0.00    -0.222 N 
ATOM     10  C14 UNL     1     -52.709  56.133   4.418  0.00  0.00    +0.253 C 
ATOM     11  O2  UNL     1     -53.965  56.203   3.812  0.00  0.00    -0.271 OA
ATOM     12  C15 UNL     1     -51.826  54.942   4.130  0.00  0.00    +0.091 C 
ATOM     13  C16 UNL     1     -52.094  53.834   5.167  0.00  0.00    +0.035 C 
ATOM     14  C17 UNL     1     -51.031  52.770   5.188  0.00  0.00    -0.030 C 
ATOM     15  C18 UNL     1     -49.796  52.968   4.707  0.00  0.00    -0.030 C 
ATOM     16  C19 UNL     1     -49.431  54.174   3.885  0.00  0.00    +0.032 C 
ATOM     17  C20 UNL     1     -50.353  55.384   4.143  0.00  0.00    +0.056 C 
BRANCH   9  18
ATOM     18  C7  UNL     1     -53.088  58.275   5.566  0.00  0.00    +0.108 C 
ATOM     19  C8  UNL     1     -52.949  59.347   4.463  0.00  0.00    +0.024 C 
ATOM     20  C9  UNL     1     -53.817  60.595   4.702  0.00  0.00    +0.002 C 
ATOM     21  C10 UNL     1     -53.230  61.509   5.792  0.00  0.00    +0.000 C 
ATOM     22  C11 UNL     1     -53.697  61.184   7.225  0.00  0.00    +0.000 C 
ATOM     23  C12 UNL     1     -53.873  59.691   7.561  0.00  0.00    +0.002 C 
ATOM     24  C13 UNL     1     -52.767  58.782   6.994  0.00  0.00    +0.024 C 
ENDBRANCH   9  18
ENDBRANCH   4   7
BRANCH   1  26
ATOM     25  C1  UNL     1     -43.702  56.202   7.219  0.00  0.00    +0.253 C 
ATOM     26  O1  UNL     1     -44.838  57.028   7.460  0.00  0.00    -0.468 OA
ENDBRANCH   1  26
BRANCH   6  27
ATOM     27  O3  UNL     1     -46.878  58.699   8.204  0.00  0.00    -0.472 OA
BRANCH  27  28
ATOM     28  C23 UNL     1     -47.261  60.055   7.977  0.00  0.00    +0.206 C 
BRANCH  28  29
ATOM     29  C24 UNL     1     -48.750  60.235   8.272  0.00  0.00    +0.051 C 
BRANCH  29  30
ATOM     30  C25 UNL     1     -49.485  60.831   7.062  0.00  0.00    +0.051 C 
BRANCH  30  31
ATOM     31  C26 UNL     1     -49.795  62.318   7.276  0.00  0.00    +0.206 C 
BRANCH  31  32
ATOM     32  O4  UNL     1     -48.890  63.134   6.530  0.00  0.00    -0.475 OA
BRANCH  32  33
ATOM     33  C27 UNL     1     -49.233  63.915   5.411  0.00  0.00    +0.139 A 
ATOM     34  C28 UNL     1     -48.350  64.845   4.825  0.00  0.00    +0.037 A 
ATOM     35  C29 UNL     1     -48.759  65.617   3.734  0.00  0.00    +0.006 A 
ATOM     36  C30 UNL     1     -50.048  65.464   3.197  0.00  0.00    +0.040 A 
ATOM     37  C32 UNL     1     -50.919  64.526   3.774  0.00  0.00    +0.006 A 
ATOM     38  C33 UNL     1     -50.514  63.760   4.869  0.00  0.00    +0.037 A 
BRANCH  36  39
ATOM     39  C31 UNL     1     -50.479  66.277   2.039  0.00  0.00    +0.208 A 
ATOM     40  N3  UNL     1     -49.927  67.451   1.667  0.00  0.00    -0.106 NA
ATOM     41  N4  UNL     1     -50.607  67.846   0.604  0.00  0.00    -0.021 NA
ATOM     42  N5  UNL     1     -51.541  66.957   0.320  0.00  0.00    -0.021 NA
ATOM     43  N6  UNL     1     -51.488  65.968   1.195  0.00  0.00    -0.106 NA
ENDBRANCH  36  39
ENDBRANCH  32  33
ENDBRANCH  31  32
ENDBRANCH  30  31
ENDBRANCH  29  30
ENDBRANCH  28  29
ENDBRANCH  27  28
ENDBRANCH   6  27
TORSDOF 11
ENDMDL
MODEL 6
REMARK VINA RESULT:      -7.1      3.203      6.424
REMARK  Name = ./data/4wxx_site2_bc02/pdb/l1c2.pdb
REMARK  11 active torsions:
REMARK  status: ('A' for Active; 'I' for Inactive)
REMARK    1  A    between atoms: O1_2  and  C2_3
REMARK    2  A    between atoms: C5_6  and  C6_7
REMARK    3  A    between atoms: N2_9  and  C7_10
REMARK    4  A    between atoms: C22_26  and  O3_27
REMARK    5  A    between atoms: O3_27  and  C23_28
REMARK    6  A    between atoms: C23_28  and  C24_29
REMARK    7  A    between atoms: C24_29  and  C25_30
REMARK    8  A    between atoms: C25_30  and  C26_31
REMARK    9  A    between atoms: C26_31  and  O4_32
REMARK   10  A    between atoms: O4_32  and  C27_33
REMARK   11  A    between atoms: C30_36  and  C31_37
REMARK                            x       y       z     vdW  Elec       q    Type
REMARK                         _______ _______ _______ _____ _____    ______ ____
ROOT
ATOM      1  C2  UNL     1     -48.926  56.861   5.701  0.00  0.00    +0.172 A 
ATOM      2  C3  UNL     1     -47.954  57.619   6.383  0.00  0.00    +0.040 A 
ATOM      3  C4  UNL     1     -48.171  58.971   6.652  0.00  0.00    +0.005 A 
ATOM      4  C5  UNL     1     -49.368  59.585   6.261  0.00  0.00    +0.018 A 
ATOM      5  C21 UNL     1     -50.323  58.842   5.549  0.00  0.00    +0.041 A 
ATOM      6  C22 UNL     1     -50.117  57.475   5.281  0.00  0.00    +0.172 A 
ENDROOT
BRANCH   4   7
ATOM      7  C6  UNL     1     -49.640  61.002   6.564  0.00  0.00    +0.079 C 
ATOM      8  N1  UNL     1     -48.740  61.878   6.224  0.00  0.00    -0.172 NA
ATOM      9  N2  UNL     1     -48.956  63.276   6.264  0.00  0.00    -0.222 N 
ATOM     10  C14 UNL     1     -50.002  63.767   6.898  0.00  0.00    +0.253 C 
ATOM     11  O2  UNL     1     -50.253  65.141   6.928  0.00  0.00    -0.271 OA
ATOM     12  C15 UNL     1     -50.937  62.839   7.636  0.00  0.00    +0.091 C 
ATOM     13  C16 UNL     1     -50.433  62.631   9.078  0.00  0.00    +0.035 C 
ATOM     14  C17 UNL     1     -51.077  61.461   9.771  0.00  0.00    -0.030 C 
ATOM     15  C18 UNL     1     -51.670  60.461   9.105  0.00  0.00    -0.030 C 
ATOM     16  C19 UNL     1     -51.963  60.529   7.631  0.00  0.00    +0.032 C 
ATOM     17  C20 UNL     1     -51.038  61.506   6.875  0.00  0.00    +0.056 C 
BRANCH   9  18
ATOM     18  C7  UNL     1     -48.008  64.113   5.500  0.00  0.00    +0.108 C 
ATOM     19  C8  UNL     1     -46.911  64.702   6.414  0.00  0.00    +0.024 C 
ATOM     20  C9  UNL     1     -45.849  65.517   5.656  0.00  0.00    +0.002 C 
ATOM     21  C10 UNL     1     -46.371  66.902   5.236  0.00  0.00    +0.000 C 
ATOM     22  C11 UNL     1     -47.062  66.940   3.859  0.00  0.00    +0.000 C 
ATOM     23  C12 UNL     1     -47.915  65.711   3.492  0.00  0.00    +0.002 C 
ATOM     24  C13 UNL     1     -48.766  65.164   4.653  0.00  0.00    +0.024 C 
ENDBRANCH   9  18
ENDBRANCH   4   7
BRANCH   1  26
ATOM     25  C1  UNL     1     -47.487  54.840   5.371  0.00  0.00    +0.253 C 
ATOM     26  O1  UNL     1     -48.752  55.493   5.432  0.00  0.00    -0.468 OA
ENDBRANCH   1  26
BRANCH   6  27
ATOM     27  O3  UNL     1     -51.078  56.692   4.617  0.00  0.00    -0.472 OA
BRANCH  27  28
ATOM     28  C23 UNL     1     -52.450  57.047   4.456  0.00  0.00    +0.206 C 
BRANCH  28  29
ATOM     29  C24 UNL     1     -53.022  57.545   5.784  0.00  0.00    +0.051 C 
BRANCH  29  30
ATOM     30  C25 UNL     1     -53.965  58.737   5.567  0.00  0.00    +0.051 C 
BRANCH  30  31
ATOM     31  C26 UNL     1     -53.502  59.606   4.391  0.00  0.00    +0.206 C 
BRANCH  31  32
ATOM     32  O4  UNL     1     -53.764  60.986   4.651  0.00  0.00    -0.475 OA
BRANCH  32  33
ATOM     33  C27 UNL     1     -53.332  62.060   3.852  0.00  0.00    +0.139 A 
ATOM     34  C28 UNL     1     -52.557  63.126   4.352  0.00  0.00    +0.037 A 
ATOM     35  C29 UNL     1     -52.185  64.183   3.515  0.00  0.00    +0.006 A 
ATOM     36  C30 UNL     1     -52.565  64.189   2.164  0.00  0.00    +0.040 A 
ATOM     37  C32 UNL     1     -53.325  63.118   1.665  0.00  0.00    +0.006 A 
ATOM     38  C33 UNL     1     -53.704  62.066   2.502  0.00  0.00    +0.037 A 
BRANCH  36  39
ATOM     39  C31 UNL     1     -52.168  65.305   1.278  0.00  0.00    +0.208 A 
ATOM     40  N3  UNL     1     -51.500  66.409   1.673  0.00  0.00    -0.106 NA
ATOM     41  N4  UNL     1     -51.358  67.149   0.587  0.00  0.00    -0.021 NA
ATOM     42  N5  UNL     1     -51.908  66.535  -0.444  0.00  0.00    -0.021 NA
ATOM     43  N6  UNL     1     -52.422  65.383  -0.047  0.00  0.00    -0.106 NA
ENDBRANCH  36  39
ENDBRANCH  32  33
ENDBRANCH  31  32
ENDBRANCH  30  31
ENDBRANCH  29  30
ENDBRANCH  28  29
ENDBRANCH  27  28
ENDBRANCH   6  27
TORSDOF 11
ENDMDL
MODEL 7
REMARK VINA RESULT:      -6.6      2.685      7.876
REMARK  Name = ./data/4wxx_site2_bc02/pdb/l1c2.pdb
REMARK  11 active torsions:
REMARK  status: ('A' for Active; 'I' for Inactive)
REMARK    1  A    between atoms: O1_2  and  C2_3
REMARK    2  A    between atoms: C5_6  and  C6_7
REMARK    3  A    between atoms: N2_9  and  C7_10
REMARK    4  A    between atoms: C22_26  and  O3_27
REMARK    5  A    between atoms: O3_27  and  C23_28
REMARK    6  A    between atoms: C23_28  and  C24_29
REMARK    7  A    between atoms: C24_29  and  C25_30
REMARK    8  A    between atoms: C25_30  and  C26_31
REMARK    9  A    between atoms: C26_31  and  O4_32
REMARK   10  A    between atoms: O4_32  and  C27_33
REMARK   11  A    between atoms: C30_36  and  C31_37
REMARK                            x       y       z     vdW  Elec       q    Type
REMARK                         _______ _______ _______ _____ _____    ______ ____
ROOT
ATOM      1  C2  UNL     1     -45.894  56.668   7.399  0.00  0.00    +0.172 A 
ATOM      2  C3  UNL     1     -45.957  55.613   6.467  0.00  0.00    +0.040 A 
ATOM      3  C4  UNL     1     -47.108  55.412   5.703  0.00  0.00    +0.005 A 
ATOM      4  C5  UNL     1     -48.207  56.268   5.844  0.00  0.00    +0.018 A 
ATOM      5  C21 UNL     1     -48.162  57.296   6.798  0.00  0.00    +0.041 A 
ATOM      6  C22 UNL     1     -47.003  57.514   7.567  0.00  0.00    +0.172 A 
ENDROOT
BRANCH   4   7
ATOM      7  C6  UNL     1     -49.422  56.102   5.024  0.00  0.00    +0.079 C 
ATOM      8  N1  UNL     1     -50.514  56.681   5.433  0.00  0.00    -0.172 NA
ATOM      9  N2  UNL     1     -51.688  56.778   4.649  0.00  0.00    -0.222 N 
ATOM     10  C14 UNL     1     -51.815  56.055   3.554  0.00  0.00    +0.253 C 
ATOM     11  O2  UNL     1     -52.951  56.155   2.748  0.00  0.00    -0.271 OA
ATOM     12  C15 UNL     1     -50.733  55.075   3.170  0.00  0.00    +0.091 C 
ATOM     13  C16 UNL     1     -51.002  53.714   3.841  0.00  0.00    +0.035 C 
ATOM     14  C17 UNL     1     -49.812  52.793   3.818  0.00  0.00    -0.030 C 
ATOM     15  C18 UNL     1     -48.558  53.233   3.649  0.00  0.00    -0.030 C 
ATOM     16  C19 UNL     1     -48.243  54.642   3.225  0.00  0.00    +0.032 C 
ATOM     17  C20 UNL     1     -49.363  55.644   3.577  0.00  0.00    +0.056 C 
BRANCH   9  18
ATOM     18  C7  UNL     1     -52.689  57.775   5.081  0.00  0.00    +0.108 C 
ATOM     19  C8  UNL     1     -52.548  59.095   4.292  0.00  0.00    +0.024 C 
ATOM     20  C9  UNL     1     -53.619  60.142   4.645  0.00  0.00    +0.002 C 
ATOM     21  C10 UNL     1     -53.344  60.817   6.001  0.00  0.00    +0.000 C 
ATOM     22  C11 UNL     1     -53.965  60.099   7.216  0.00  0.00    +0.000 C 
ATOM     23  C12 UNL     1     -53.964  58.559   7.168  0.00  0.00    +0.002 C 
ATOM     24  C13 UNL     1     -52.663  57.945   6.620  0.00  0.00    +0.024 C 
ENDBRANCH   9  18
ENDBRANCH   4   7
BRANCH   1  26
ATOM     25  C1  UNL     1     -44.531  56.400   9.481  0.00  0.00    +0.253 C 
ATOM     26  O1  UNL     1     -44.746  56.915   8.169  0.00  0.00    -0.468 OA
ENDBRANCH   1  26
BRANCH   6  27
ATOM     27  O3  UNL     1     -46.907  58.568   8.492  0.00  0.00    -0.472 OA
BRANCH  27  28
ATOM     28  C23 UNL     1     -47.439  59.877   8.294  0.00  0.00    +0.206 C 
BRANCH  28  29
ATOM     29  C24 UNL     1     -48.772  60.018   9.029  0.00  0.00    +0.051 C 
BRANCH  29  30
ATOM     30  C25 UNL     1     -49.817  60.721   8.149  0.00  0.00    +0.051 C 
BRANCH  30  31
ATOM     31  C26 UNL     1     -50.777  61.567   8.994  0.00  0.00    +0.206 C 
BRANCH  31  32
ATOM     32  O4  UNL     1     -50.765  62.928   8.559  0.00  0.00    -0.475 OA
BRANCH  32  33
ATOM     33  C27 UNL     1     -51.220  63.386   7.309  0.00  0.00    +0.139 A 
ATOM     34  C28 UNL     1     -52.403  64.136   7.151  0.00  0.00    +0.037 A 
ATOM     35  C29 UNL     1     -52.822  64.535   5.879  0.00  0.00    +0.006 A 
ATOM     36  C30 UNL     1     -52.062  64.210   4.744  0.00  0.00    +0.040 A 
ATOM     37  C32 UNL     1     -50.876  63.476   4.906  0.00  0.00    +0.006 A 
ATOM     38  C33 UNL     1     -50.461  63.069   6.176  0.00  0.00    +0.037 A 
BRANCH  36  39
ATOM     39  C31 UNL     1     -52.503  64.637   3.398  0.00  0.00    +0.208 A 
ATOM     40  N3  UNL     1     -52.040  64.135   2.234  0.00  0.00    -0.106 NA
ATOM     41  N4  UNL     1     -52.678  64.792   1.281  0.00  0.00    -0.021 NA
ATOM     42  N5  UNL     1     -53.509  65.664   1.823  0.00  0.00    -0.021 NA
ATOM     43  N6  UNL     1     -53.422  65.593   3.141  0.00  0.00    -0.106 NA
ENDBRANCH  36  39
ENDBRANCH  32  33
ENDBRANCH  31  32
ENDBRANCH  30  31
ENDBRANCH  29  30
ENDBRANCH  28  29
ENDBRANCH  27  28
ENDBRANCH   6  27
TORSDOF 11
ENDMDL
