MODEL 1
REMARK VINA RESULT:      -9.6      0.000      0.000
REMARK  Name = ./data/4wxx_site2_bc02/pdb/l1c0.pdb
REMARK  11 active torsions:
REMARK  status: ('A' for Active; 'I' for Inactive)
REMARK    1  A    between atoms: O1_2  and  C2_3
REMARK    2  A    between atoms: C5_6  and  C6_7
REMARK    3  A    between atoms: N2_9  and  C7_10
REMARK    4  A    between atoms: C22_26  and  O3_27
REMARK    5  A    between atoms: O3_27  and  C23_28
REMARK    6  A    between atoms: C23_28  and  C24_29
REMARK    7  A    between atoms: C24_29  and  C25_30
REMARK    8  A    between atoms: C25_30  and  C26_31
REMARK    9  A    between atoms: C26_31  and  O4_32
REMARK   10  A    between atoms: O4_32  and  C27_33
REMARK   11  A    between atoms: C30_36  and  C31_37
REMARK                            x       y       z     vdW  Elec       q    Type
REMARK                         _______ _______ _______ _____ _____    ______ ____
ROOT
ATOM      1  C2  UNL     1     -50.921  61.993   7.244  0.00  0.00    +0.172 A 
ATOM      2  C3  UNL     1     -49.590  62.082   7.684  0.00  0.00    +0.040 A 
ATOM      3  C4  UNL     1     -48.750  60.970   7.621  0.00  0.00    +0.005 A 
ATOM      4  C5  UNL     1     -49.211  59.743   7.111  0.00  0.00    +0.018 A 
ATOM      5  C21 UNL     1     -50.543  59.664   6.659  0.00  0.00    +0.041 A 
ATOM      6  C22 UNL     1     -51.406  60.777   6.743  0.00  0.00    +0.172 A 
ENDROOT
BRANCH   4   7
ATOM      7  C6  UNL     1     -48.288  58.568   7.056  0.00  0.00    +0.079 C 
ATOM      8  N1  UNL     1     -48.646  57.527   6.364  0.00  0.00    -0.172 NA
ATOM      9  N2  UNL     1     -47.868  56.357   6.232  0.00  0.00    -0.222 N 
ATOM     10  C14 UNL     1     -46.602  56.347   6.584  0.00  0.00    +0.253 C 
ATOM     11  O2  UNL     1     -45.828  55.205   6.350  0.00  0.00    -0.271 OA
ATOM     12  C15 UNL     1     -45.958  57.600   7.165  0.00  0.00    +0.091 C 
ATOM     13  C16 UNL     1     -44.827  57.295   8.168  0.00  0.00    +0.035 C 
ATOM     14  C17 UNL     1     -45.383  56.537   9.335  0.00  0.00    -0.030 C 
ATOM     15  C18 UNL     1     -46.565  56.891   9.855  0.00  0.00    -0.030 C 
ATOM     16  C19 UNL     1     -47.326  58.094   9.347  0.00  0.00    +0.032 C 
ATOM     17  C20 UNL     1     -47.012  58.503   7.868  0.00  0.00    +0.056 C 
BRANCH   9  18
ATOM     18  C7  UNL     1     -48.533  55.191   5.611  0.00  0.00    +0.108 C 
ATOM     19  C8  UNL     1     -50.056  55.191   5.912  0.00  0.00    +0.024 C 
ATOM     20  C9  UNL     1     -50.638  53.771   6.003  0.00  0.00    +0.002 C 
ATOM     21  C10 UNL     1     -50.870  53.116   4.638  0.00  0.00    +0.000 C 
ATOM     22  C11 UNL     1     -49.591  52.966   3.805  0.00  0.00    +0.000 C 
ATOM     23  C12 UNL     1     -49.124  54.306   3.213  0.00  0.00    +0.002 C 
ATOM     24  C13 UNL     1     -48.145  55.078   4.111  0.00  0.00    +0.024 C 
ENDBRANCH   9  18
ENDBRANCH   4   7
BRANCH   1  26
ATOM     25  C1  UNL     1     -52.837  63.248   8.251  0.00  0.00    +0.253 C 
ATOM     26  O1  UNL     1     -51.796  63.090   7.292  0.00  0.00    -0.468 OA
ENDBRANCH   1  26
BRANCH   6  27
ATOM     27  O3  UNL     1     -52.750  60.721   6.338  0.00  0.00    -0.472 OA
BRANCH  27  28
ATOM     28  C23 UNL     1     -53.215  60.720   4.988  0.00  0.00    +0.206 C 
BRANCH  28  29
ATOM     29  C24 UNL     1     -53.934  62.032   4.665  0.00  0.00    +0.051 C 
BRANCH  29  30
ATOM     30  C25 UNL     1     -53.758  62.415   3.191  0.00  0.00    +0.051 C 
BRANCH  30  31
ATOM     31  C26 UNL     1     -53.602  63.926   3.021  0.00  0.00    +0.206 C 
BRANCH  31  32
ATOM     32  O4  UNL     1     -52.371  64.203   2.353  0.00  0.00    -0.475 OA
BRANCH  32  33
ATOM     33  C27 UNL     1     -51.189  64.602   2.989  0.00  0.00    +0.139 A 
ATOM     34  C28 UNL     1     -50.500  65.700   2.469  0.00  0.00    +0.037 A 
ATOM     35  C29 UNL     1     -49.298  66.123   3.040  0.00  0.00    +0.006 A 
ATOM     36  C30 UNL     1     -48.768  65.462   4.164  0.00  0.00    +0.040 A 
ATOM     37  C32 UNL     1     -49.477  64.371   4.704  0.00  0.00    +0.006 A 
ATOM     38  C33 UNL     1     -50.673  63.941   4.119  0.00  0.00    +0.037 A 
BRANCH  36  39
ATOM     39  C31 UNL     1     -47.482  65.904   4.764  0.00  0.00    +0.208 A 
ATOM     40  N3  UNL     1     -46.701  66.901   4.294  0.00  0.00    -0.106 NA
ATOM     41  N4  UNL     1     -45.678  66.979   5.127  0.00  0.00    -0.021 NA
ATOM     42  N5  UNL     1     -45.808  66.068   6.075  0.00  0.00    -0.021 NA
ATOM     43  N6  UNL     1     -46.921  65.386   5.880  0.00  0.00    -0.106 NA
ENDBRANCH  36  39
ENDBRANCH  32  33
ENDBRANCH  31  32
ENDBRANCH  30  31
ENDBRANCH  29  30
ENDBRANCH  28  29
ENDBRANCH  27  28
ENDBRANCH   6  27
TORSDOF 11
ENDMDL
MODEL 2
REMARK VINA RESULT:      -8.9      1.236      1.750
REMARK  Name = ./data/4wxx_site2_bc02/pdb/l1c0.pdb
REMARK  11 active torsions:
REMARK  status: ('A' for Active; 'I' for Inactive)
REMARK    1  A    between atoms: O1_2  and  C2_3
REMARK    2  A    between atoms: C5_6  and  C6_7
REMARK    3  A    between atoms: N2_9  and  C7_10
REMARK    4  A    between atoms: C22_26  and  O3_27
REMARK    5  A    between atoms: O3_27  and  C23_28
REMARK    6  A    between atoms: C23_28  and  C24_29
REMARK    7  A    between atoms: C24_29  and  C25_30
REMARK    8  A    between atoms: C25_30  and  C26_31
REMARK    9  A    between atoms: C26_31  and  O4_32
REMARK   10  A    between atoms: O4_32  and  C27_33
REMARK   11  A    between atoms: C30_36  and  C31_37
REMARK                            x       y       z     vdW  Elec       q    Type
REMARK                         _______ _______ _______ _____ _____    ______ ____
ROOT
ATOM      1  C2  UNL     1     -51.923  63.325   6.858  0.00  0.00    +0.172 A 
ATOM      2  C3  UNL     1     -50.679  63.263   7.505  0.00  0.00    +0.040 A 
ATOM      3  C4  UNL     1     -49.914  62.097   7.455  0.00  0.00    +0.005 A 
ATOM      4  C5  UNL     1     -50.366  60.966   6.753  0.00  0.00    +0.018 A 
ATOM      5  C21 UNL     1     -51.608  61.039   6.094  0.00  0.00    +0.041 A 
ATOM      6  C22 UNL     1     -52.399  62.205   6.162  0.00  0.00    +0.172 A 
ENDROOT
BRANCH   4   7
ATOM      7  C6  UNL     1     -49.525  59.729   6.717  0.00  0.00    +0.079 C 
ATOM      8  N1  UNL     1     -49.944  58.711   6.025  0.00  0.00    -0.172 NA
ATOM      9  N2  UNL     1     -49.248  57.490   5.910  0.00  0.00    -0.222 N 
ATOM     10  C14 UNL     1     -47.990  57.394   6.281  0.00  0.00    +0.253 C 
ATOM     11  O2  UNL     1     -47.294  56.201   6.063  0.00  0.00    -0.271 OA
ATOM     12  C15 UNL     1     -47.269  58.604   6.863  0.00  0.00    +0.091 C 
ATOM     13  C16 UNL     1     -46.175  58.228   7.884  0.00  0.00    +0.035 C 
ATOM     14  C17 UNL     1     -46.798  57.518   9.047  0.00  0.00    -0.030 C 
ATOM     15  C18 UNL     1     -47.960  57.955   9.549  0.00  0.00    -0.030 C 
ATOM     16  C19 UNL     1     -48.629  59.204   9.024  0.00  0.00    +0.032 C 
ATOM     17  C20 UNL     1     -48.268  59.581   7.547  0.00  0.00    +0.056 C 
BRANCH   9  18
ATOM     18  C7  UNL     1     -49.982  56.369   5.287  0.00  0.00    +0.108 C 
ATOM     19  C8  UNL     1     -50.066  55.153   6.248  0.00  0.00    +0.024 C 
ATOM     20  C9  UNL     1     -50.084  53.810   5.500  0.00  0.00    +0.002 C 
ATOM     21  C10 UNL     1     -51.446  53.467   4.889  0.00  0.00    +0.000 C 
ATOM     22  C11 UNL     1     -51.934  54.498   3.863  0.00  0.00    +0.000 C 
ATOM     23  C12 UNL     1     -52.428  55.792   4.530  0.00  0.00    +0.002 C 
ATOM     24  C13 UNL     1     -51.336  56.860   4.706  0.00  0.00    +0.024 C 
ENDBRANCH   9  18
ENDBRANCH   4   7
BRANCH   1  26
ATOM     25  C1  UNL     1     -53.219  65.086   8.074  0.00  0.00    +0.253 C 
ATOM     26  O1  UNL     1     -52.720  64.481   6.885  0.00  0.00    -0.468 OA
ENDBRANCH   1  26
BRANCH   6  27
ATOM     27  O3  UNL     1     -53.660  62.298   5.549  0.00  0.00    -0.472 OA
BRANCH  27  28
ATOM     28  C23 UNL     1     -53.964  63.050   4.375  0.00  0.00    +0.206 C 
BRANCH  28  29
ATOM     29  C24 UNL     1     -53.871  62.166   3.128  0.00  0.00    +0.051 C 
BRANCH  29  30
ATOM     30  C25 UNL     1     -53.493  62.988   1.890  0.00  0.00    +0.051 C 
BRANCH  30  31
ATOM     31  C26 UNL     1     -53.443  64.482   2.206  0.00  0.00    +0.206 C 
BRANCH  31  32
ATOM     32  O4  UNL     1     -52.224  65.031   1.709  0.00  0.00    -0.475 OA
BRANCH  32  33
ATOM     33  C27 UNL     1     -51.078  65.263   2.482  0.00  0.00    +0.139 A 
ATOM     34  C28 UNL     1     -50.249  66.329   2.126  0.00  0.00    +0.037 A 
ATOM     35  C29 UNL     1     -49.077  66.588   2.838  0.00  0.00    +0.006 A 
ATOM     36  C30 UNL     1     -48.717  65.790   3.941  0.00  0.00    +0.040 A 
ATOM     37  C32 UNL     1     -49.568  64.730   4.314  0.00  0.00    +0.006 A 
ATOM     38  C33 UNL     1     -50.734  64.465   3.588  0.00  0.00    +0.037 A 
BRANCH  36  39
ATOM     39  C31 UNL     1     -47.462  66.057   4.691  0.00  0.00    +0.208 A 
ATOM     40  N3  UNL     1     -46.999  65.324   5.726  0.00  0.00    -0.106 NA
ATOM     41  N4  UNL     1     -45.856  65.886   6.081  0.00  0.00    -0.021 NA
ATOM     42  N5  UNL     1     -45.615  66.928   5.304  0.00  0.00    -0.021 NA
ATOM     43  N6  UNL     1     -46.593  67.059   4.428  0.00  0.00    -0.106 NA
ENDBRANCH  36  39
ENDBRANCH  32  33
ENDBRANCH  31  32
ENDBRANCH  30  31
ENDBRANCH  29  30
ENDBRANCH  28  29
ENDBRANCH  27  28
ENDBRANCH   6  27
TORSDOF 11
ENDMDL
MODEL 3
REMARK VINA RESULT:      -8.3      2.393      3.215
REMARK  Name = ./data/4wxx_site2_bc02/pdb/l1c0.pdb
REMARK  11 active torsions:
REMARK  status: ('A' for Active; 'I' for Inactive)
REMARK    1  A    between atoms: O1_2  and  C2_3
REMARK    2  A    between atoms: C5_6  and  C6_7
REMARK    3  A    between atoms: N2_9  and  C7_10
REMARK    4  A    between atoms: C22_26  and  O3_27
REMARK    5  A    between atoms: O3_27  and  C23_28
REMARK    6  A    between atoms: C23_28  and  C24_29
REMARK    7  A    between atoms: C24_29  and  C25_30
REMARK    8  A    between atoms: C25_30  and  C26_31
REMARK    9  A    between atoms: C26_31  and  O4_32
REMARK   10  A    between atoms: O4_32  and  C27_33
REMARK   11  A    between atoms: C30_36  and  C31_37
REMARK                            x       y       z     vdW  Elec       q    Type
REMARK                         _______ _______ _______ _____ _____    ______ ____
ROOT
ATOM      1  C2  UNL     1     -50.124  62.439   7.081  0.00  0.00    +0.172 A 
ATOM      2  C3  UNL     1     -49.021  62.258   6.231  0.00  0.00    +0.040 A 
ATOM      3  C4  UNL     1     -48.322  61.051   6.228  0.00  0.00    +0.005 A 
ATOM      4  C5  UNL     1     -48.708  59.989   7.065  0.00  0.00    +0.018 A 
ATOM      5  C21 UNL     1     -49.824  60.172   7.906  0.00  0.00    +0.041 A 
ATOM      6  C22 UNL     1     -50.520  61.399   7.933  0.00  0.00    +0.172 A 
ENDROOT
BRANCH   4   7
ATOM      7  C6  UNL     1     -47.940  58.706   7.041  0.00  0.00    +0.079 C 
ATOM      8  N1  UNL     1     -48.424  57.703   6.370  0.00  0.00    -0.172 NA
ATOM      9  N2  UNL     1     -47.799  56.443   6.269  0.00  0.00    -0.222 N 
ATOM     10  C14 UNL     1     -46.545  56.281   6.628  0.00  0.00    +0.253 C 
ATOM     11  O2  UNL     1     -45.920  55.047   6.423  0.00  0.00    -0.271 OA
ATOM     12  C15 UNL     1     -45.751  57.457   7.183  0.00  0.00    +0.091 C 
ATOM     13  C16 UNL     1     -44.669  57.035   8.199  0.00  0.00    +0.035 C 
ATOM     14  C17 UNL     1     -45.318  56.380   9.379  0.00  0.00    -0.030 C 
ATOM     15  C18 UNL     1     -46.447  56.891   9.886  0.00  0.00    -0.030 C 
ATOM     16  C19 UNL     1     -47.050  58.168   9.347  0.00  0.00    +0.032 C 
ATOM     17  C20 UNL     1     -46.684  58.500   7.861  0.00  0.00    +0.056 C 
BRANCH   9  18
ATOM     18  C7  UNL     1     -48.603  55.355   5.671  0.00  0.00    +0.108 C 
ATOM     19  C8  UNL     1     -50.118  55.693   5.712  0.00  0.00    +0.024 C 
ATOM     20  C9  UNL     1     -50.998  54.441   5.852  0.00  0.00    +0.002 C 
ATOM     21  C10 UNL     1     -51.170  53.663   4.544  0.00  0.00    +0.000 C 
ATOM     22  C11 UNL     1     -49.848  53.154   3.955  0.00  0.00    +0.000 C 
ATOM     23  C12 UNL     1     -49.025  54.284   3.313  0.00  0.00    +0.002 C 
ATOM     24  C13 UNL     1     -48.041  54.965   4.276  0.00  0.00    +0.024 C 
ENDBRANCH   9  18
ENDBRANCH   4   7
BRANCH   1  26
ATOM     25  C1  UNL     1     -50.270  64.935   7.019  0.00  0.00    +0.253 C 
ATOM     26  O1  UNL     1     -50.852  63.639   7.112  0.00  0.00    -0.468 OA
ENDBRANCH   1  26
BRANCH   6  27
ATOM     27  O3  UNL     1     -51.612  61.627   8.788  0.00  0.00    -0.472 OA
BRANCH  27  28
ATOM     28  C23 UNL     1     -52.864  60.943   8.742  0.00  0.00    +0.206 C 
BRANCH  28  29
ATOM     29  C24 UNL     1     -53.598  61.249   7.434  0.00  0.00    +0.051 C 
BRANCH  29  30
ATOM     30  C25 UNL     1     -53.636  60.020   6.517  0.00  0.00    +0.051 C 
BRANCH  30  31
ATOM     31  C26 UNL     1     -53.335  60.397   5.067  0.00  0.00    +0.206 C 
BRANCH  31  32
ATOM     32  O4  UNL     1     -53.924  61.663   4.775  0.00  0.00    -0.475 OA
BRANCH  32  33
ATOM     33  C27 UNL     1     -53.422  62.583   3.844  0.00  0.00    +0.139 A 
ATOM     34  C28 UNL     1     -52.636  63.636   4.316  0.00  0.00    +0.037 A 
ATOM     35  C29 UNL     1     -52.137  64.601   3.439  0.00  0.00    +0.006 A 
ATOM     36  C30 UNL     1     -52.401  64.520   2.058  0.00  0.00    +0.040 A 
ATOM     37  C32 UNL     1     -53.173  63.442   1.581  0.00  0.00    +0.006 A 
ATOM     38  C33 UNL     1     -53.684  62.486   2.465  0.00  0.00    +0.037 A 
BRANCH  36  39
ATOM     39  C31 UNL     1     -51.881  65.554   1.127  0.00  0.00    +0.208 A 
ATOM     40  N3  UNL     1     -51.054  66.566   1.465  0.00  0.00    -0.106 NA
ATOM     41  N4  UNL     1     -50.823  67.231   0.346  0.00  0.00    -0.021 NA
ATOM     42  N5  UNL     1     -51.480  66.662  -0.650  0.00  0.00    -0.021 NA
ATOM     43  N6  UNL     1     -52.145  65.616  -0.198  0.00  0.00    -0.106 NA
ENDBRANCH  36  39
ENDBRANCH  32  33
ENDBRANCH  31  32
ENDBRANCH  30  31
ENDBRANCH  29  30
ENDBRANCH  28  29
ENDBRANCH  27  28
ENDBRANCH   6  27
TORSDOF 11
ENDMDL
MODEL 4
REMARK VINA RESULT:      -7.0      2.722      9.323
REMARK  Name = ./data/4wxx_site2_bc02/pdb/l1c0.pdb
REMARK  11 active torsions:
REMARK  status: ('A' for Active; 'I' for Inactive)
REMARK    1  A    between atoms: O1_2  and  C2_3
REMARK    2  A    between atoms: C5_6  and  C6_7
REMARK    3  A    between atoms: N2_9  and  C7_10
REMARK    4  A    between atoms: C22_26  and  O3_27
REMARK    5  A    between atoms: O3_27  and  C23_28
REMARK    6  A    between atoms: C23_28  and  C24_29
REMARK    7  A    between atoms: C24_29  and  C25_30
REMARK    8  A    between atoms: C25_30  and  C26_31
REMARK    9  A    between atoms: C26_31  and  O4_32
REMARK   10  A    between atoms: O4_32  and  C27_33
REMARK   11  A    between atoms: C30_36  and  C31_37
REMARK                            x       y       z     vdW  Elec       q    Type
REMARK                         _______ _______ _______ _____ _____    ______ ____
ROOT
ATOM      1  C2  UNL     1     -50.256  56.007   5.681  0.00  0.00    +0.172 A 
ATOM      2  C3  UNL     1     -51.553  56.477   5.420  0.00  0.00    +0.040 A 
ATOM      3  C4  UNL     1     -51.855  57.832   5.561  0.00  0.00    +0.005 A 
ATOM      4  C5  UNL     1     -50.872  58.755   5.957  0.00  0.00    +0.018 A 
ATOM      5  C21 UNL     1     -49.569  58.280   6.204  0.00  0.00    +0.041 A 
ATOM      6  C22 UNL     1     -49.262  56.908   6.088  0.00  0.00    +0.172 A 
ENDROOT
BRANCH   4   7
ATOM      7  C6  UNL     1     -51.224  60.201   6.101  0.00  0.00    +0.079 C 
ATOM      8  N1  UNL     1     -50.402  61.093   5.631  0.00  0.00    -0.172 NA
ATOM      9  N2  UNL     1     -50.617  62.485   5.702  0.00  0.00    -0.222 N 
ATOM     10  C14 UNL     1     -51.799  62.969   6.013  0.00  0.00    +0.253 C 
ATOM     11  O2  UNL     1     -52.011  64.351   5.978  0.00  0.00    -0.271 OA
ATOM     12  C15 UNL     1     -52.955  62.026   6.323  0.00  0.00    +0.091 C 
ATOM     13  C16 UNL     1     -53.965  62.612   7.332  0.00  0.00    +0.035 C 
ATOM     14  C17 UNL     1     -53.277  62.867   8.638  0.00  0.00    -0.030 C 
ATOM     15  C18 UNL     1     -52.404  61.971   9.116  0.00  0.00    -0.030 C 
ATOM     16  C19 UNL     1     -52.150  60.659   8.410  0.00  0.00    +0.032 C 
ATOM     17  C20 UNL     1     -52.442  60.664   6.872  0.00  0.00    +0.056 C 
BRANCH   9  18
ATOM     18  C7  UNL     1     -49.474  63.347   5.336  0.00  0.00    +0.108 C 
ATOM     19  C8  UNL     1     -49.959  64.726   4.814  0.00  0.00    +0.024 C 
ATOM     20  C9  UNL     1     -49.012  65.326   3.762  0.00  0.00    +0.002 C 
ATOM     21  C10 UNL     1     -47.751  65.956   4.362  0.00  0.00    +0.000 C 
ATOM     22  C11 UNL     1     -46.887  64.964   5.153  0.00  0.00    +0.000 C 
ATOM     23  C12 UNL     1     -47.505  64.617   6.518  0.00  0.00    +0.002 C 
ATOM     24  C13 UNL     1     -48.435  63.394   6.490  0.00  0.00    +0.024 C 
ENDBRANCH   9  18
ENDBRANCH   4   7
BRANCH   1  26
ATOM     25  C1  UNL     1     -50.629  53.580   6.154  0.00  0.00    +0.253 C 
ATOM     26  O1  UNL     1     -49.913  54.652   5.550  0.00  0.00    -0.468 OA
ENDBRANCH   1  26
BRANCH   6  27
ATOM     27  O3  UNL     1     -47.982  56.396   6.365  0.00  0.00    -0.472 OA
BRANCH  27  28
ATOM     28  C23 UNL     1     -47.160  55.668   5.453  0.00  0.00    +0.206 C 
BRANCH  28  29
ATOM     29  C24 UNL     1     -45.952  55.068   6.177  0.00  0.00    +0.051 C 
BRANCH  29  30
ATOM     30  C25 UNL     1     -44.833  56.103   6.344  0.00  0.00    +0.051 C 
BRANCH  30  31
ATOM     31  C26 UNL     1     -43.633  55.512   7.084  0.00  0.00    +0.206 C 
BRANCH  31  32
ATOM     32  O4  UNL     1     -43.673  55.917   8.451  0.00  0.00    -0.475 OA
BRANCH  32  33
ATOM     33  C27 UNL     1     -44.781  56.502   9.080  0.00  0.00    +0.139 A 
ATOM     34  C28 UNL     1     -45.542  57.420   8.352  0.00  0.00    +0.037 A 
ATOM     35  C29 UNL     1     -46.636  58.059   8.937  0.00  0.00    +0.006 A 
ATOM     36  C30 UNL     1     -47.005  57.776  10.267  0.00  0.00    +0.040 A 
ATOM     37  C32 UNL     1     -46.252  56.831  10.990  0.00  0.00    +0.006 A 
ATOM     38  C33 UNL     1     -45.146  56.204  10.405  0.00  0.00    +0.037 A 
BRANCH  36  39
ATOM     39  C31 UNL     1     -48.162  58.467  10.893  0.00  0.00    +0.208 A 
ATOM     40  N3  UNL     1     -49.110  59.164  10.230  0.00  0.00    -0.106 NA
ATOM     41  N4  UNL     1     -49.955  59.589  11.154  0.00  0.00    -0.021 NA
ATOM     42  N5  UNL     1     -49.553  59.179  12.344  0.00  0.00    -0.021 NA
ATOM     43  N6  UNL     1     -48.443  58.477  12.216  0.00  0.00    -0.106 NA
ENDBRANCH  36  39
ENDBRANCH  32  33
ENDBRANCH  31  32
ENDBRANCH  30  31
ENDBRANCH  29  30
ENDBRANCH  28  29
ENDBRANCH  27  28
ENDBRANCH   6  27
TORSDOF 11
ENDMDL
MODEL 5
REMARK VINA RESULT:      -6.9      3.101      8.787
REMARK  Name = ./data/4wxx_site2_bc02/pdb/l1c0.pdb
REMARK  11 active torsions:
REMARK  status: ('A' for Active; 'I' for Inactive)
REMARK    1  A    between atoms: O1_2  and  C2_3
REMARK    2  A    between atoms: C5_6  and  C6_7
REMARK    3  A    between atoms: N2_9  and  C7_10
REMARK    4  A    between atoms: C22_26  and  O3_27
REMARK    5  A    between atoms: O3_27  and  C23_28
REMARK    6  A    between atoms: C23_28  and  C24_29
REMARK    7  A    between atoms: C24_29  and  C25_30
REMARK    8  A    between atoms: C25_30  and  C26_31
REMARK    9  A    between atoms: C26_31  and  O4_32
REMARK   10  A    between atoms: O4_32  and  C27_33
REMARK   11  A    between atoms: C30_36  and  C31_37
REMARK                            x       y       z     vdW  Elec       q    Type
REMARK                         _______ _______ _______ _____ _____    ______ ____
ROOT
ATOM      1  C2  UNL     1     -53.241  55.245   4.718  0.00  0.00    +0.172 A 
ATOM      2  C3  UNL     1     -53.965  56.424   4.472  0.00  0.00    +0.040 A 
ATOM      3  C4  UNL     1     -53.456  57.661   4.866  0.00  0.00    +0.005 A 
ATOM      4  C5  UNL     1     -52.209  57.758   5.509  0.00  0.00    +0.018 A 
ATOM      5  C21 UNL     1     -51.481  56.575   5.741  0.00  0.00    +0.041 A 
ATOM      6  C22 UNL     1     -52.001  55.318   5.368  0.00  0.00    +0.172 A 
ENDROOT
BRANCH   4   7
ATOM      7  C6  UNL     1     -51.688  59.098   5.922  0.00  0.00    +0.079 C 
ATOM      8  N1  UNL     1     -52.233  60.163   5.411  0.00  0.00    -0.172 NA
ATOM      9  N2  UNL     1     -51.836  61.481   5.717  0.00  0.00    -0.222 N 
ATOM     10  C14 UNL     1     -51.060  61.729   6.748  0.00  0.00    +0.253 C 
ATOM     11  O2  UNL     1     -50.763  63.053   7.088  0.00  0.00    -0.271 OA
ATOM     12  C15 UNL     1     -50.558  60.585   7.621  0.00  0.00    +0.091 C 
ATOM     13  C16 UNL     1     -49.177  60.860   8.251  0.00  0.00    +0.035 C 
ATOM     14  C17 UNL     1     -48.157  61.031   7.167  0.00  0.00    -0.030 C 
ATOM     15  C18 UNL     1     -48.178  60.222   6.100  0.00  0.00    -0.030 C 
ATOM     16  C19 UNL     1     -49.160  59.078   5.994  0.00  0.00    +0.032 C 
ATOM     17  C20 UNL     1     -50.479  59.255   6.819  0.00  0.00    +0.056 C 
BRANCH   9  18
ATOM     18  C7  UNL     1     -52.400  62.552   4.868  0.00  0.00    +0.108 C 
ATOM     19  C8  UNL     1     -51.280  63.297   4.092  0.00  0.00    +0.024 C 
ATOM     20  C9  UNL     1     -51.618  64.776   3.844  0.00  0.00    +0.002 C 
ATOM     21  C10 UNL     1     -52.610  64.994   2.697  0.00  0.00    +0.000 C 
ATOM     22  C11 UNL     1     -53.965  64.310   2.920  0.00  0.00    +0.000 C 
ATOM     23  C12 UNL     1     -53.887  62.788   2.719  0.00  0.00    +0.002 C 
ATOM     24  C13 UNL     1     -53.566  62.004   4.002  0.00  0.00    +0.024 C 
ENDBRANCH   9  18
ENDBRANCH   4   7
BRANCH   1  26
ATOM     25  C1  UNL     1     -53.737  53.502   2.994  0.00  0.00    +0.253 C 
ATOM     26  O1  UNL     1     -53.720  53.983   4.335  0.00  0.00    -0.468 OA
ENDBRANCH   1  26
BRANCH   6  27
ATOM     27  O3  UNL     1     -51.319  54.115   5.619  0.00  0.00    -0.472 OA
BRANCH  27  28
ATOM     28  C23 UNL     1     -49.936  53.871   5.365  0.00  0.00    +0.206 C 
BRANCH  28  29
ATOM     29  C24 UNL     1     -49.743  53.259   3.975  0.00  0.00    +0.051 C 
BRANCH  29  30
ATOM     30  C25 UNL     1     -48.413  53.700   3.352  0.00  0.00    +0.051 C 
BRANCH  30  31
ATOM     31  C26 UNL     1     -48.210  55.209   3.480  0.00  0.00    +0.206 C 
BRANCH  31  32
ATOM     32  O4  UNL     1     -48.353  55.591   4.847  0.00  0.00    -0.475 OA
BRANCH  32  33
ATOM     33  C27 UNL     1     -47.297  55.695   5.763  0.00  0.00    +0.139 A 
ATOM     34  C28 UNL     1     -47.155  56.889   6.472  0.00  0.00    +0.037 A 
ATOM     35  C29 UNL     1     -46.103  57.062   7.373  0.00  0.00    +0.006 A 
ATOM     36  C30 UNL     1     -45.175  56.027   7.598  0.00  0.00    +0.040 A 
ATOM     37  C32 UNL     1     -45.335  54.813   6.901  0.00  0.00    +0.006 A 
ATOM     38  C33 UNL     1     -46.382  54.650   5.987  0.00  0.00    +0.037 A 
BRANCH  36  39
ATOM     39  C31 UNL     1     -44.047  56.216   8.546  0.00  0.00    +0.208 A 
ATOM     40  N3  UNL     1     -42.918  56.913   8.291  0.00  0.00    -0.106 NA
ATOM     41  N4  UNL     1     -42.199  56.850   9.398  0.00  0.00    -0.021 NA
ATOM     42  N5  UNL     1     -42.846  56.142  10.307  0.00  0.00    -0.021 NA
ATOM     43  N6  UNL     1     -43.999  55.735   9.809  0.00  0.00    -0.106 NA
ENDBRANCH  36  39
ENDBRANCH  32  33
ENDBRANCH  31  32
ENDBRANCH  30  31
ENDBRANCH  29  30
ENDBRANCH  28  29
ENDBRANCH  27  28
ENDBRANCH   6  27
TORSDOF 11
ENDMDL
MODEL 6
REMARK VINA RESULT:      -6.8      3.004      6.592
REMARK  Name = ./data/4wxx_site2_bc02/pdb/l1c0.pdb
REMARK  11 active torsions:
REMARK  status: ('A' for Active; 'I' for Inactive)
REMARK    1  A    between atoms: O1_2  and  C2_3
REMARK    2  A    between atoms: C5_6  and  C6_7
REMARK    3  A    between atoms: N2_9  and  C7_10
REMARK    4  A    between atoms: C22_26  and  O3_27
REMARK    5  A    between atoms: O3_27  and  C23_28
REMARK    6  A    between atoms: C23_28  and  C24_29
REMARK    7  A    between atoms: C24_29  and  C25_30
REMARK    8  A    between atoms: C25_30  and  C26_31
REMARK    9  A    between atoms: C26_31  and  O4_32
REMARK   10  A    between atoms: O4_32  and  C27_33
REMARK   11  A    between atoms: C30_36  and  C31_37
REMARK                            x       y       z     vdW  Elec       q    Type
REMARK                         _______ _______ _______ _____ _____    ______ ____
ROOT
ATOM      1  C2  UNL     1     -49.571  63.306   5.373  0.00  0.00    +0.172 A 
ATOM      2  C3  UNL     1     -48.201  63.007   5.300  0.00  0.00    +0.040 A 
ATOM      3  C4  UNL     1     -47.732  61.746   5.669  0.00  0.00    +0.005 A 
ATOM      4  C5  UNL     1     -48.617  60.747   6.112  0.00  0.00    +0.018 A 
ATOM      5  C21 UNL     1     -49.992  61.048   6.170  0.00  0.00    +0.041 A 
ATOM      6  C22 UNL     1     -50.470  62.329   5.823  0.00  0.00    +0.172 A 
ENDROOT
BRANCH   4   7
ATOM      7  C6  UNL     1     -48.087  59.404   6.502  0.00  0.00    +0.079 C 
ATOM      8  N1  UNL     1     -48.448  58.366   5.807  0.00  0.00    -0.172 NA
ATOM      9  N2  UNL     1     -48.020  57.048   6.070  0.00  0.00    -0.222 N 
ATOM     10  C14 UNL     1     -47.009  56.817   6.877  0.00  0.00    +0.253 C 
ATOM     11  O2  UNL     1     -46.541  55.509   7.042  0.00  0.00    -0.271 OA
ATOM     12  C15 UNL     1     -46.294  57.976   7.561  0.00  0.00    +0.091 C 
ATOM     13  C16 UNL     1     -45.709  57.603   8.939  0.00  0.00    +0.035 C 
ATOM     14  C17 UNL     1     -46.819  57.199   9.861  0.00  0.00    -0.030 C 
ATOM     15  C18 UNL     1     -47.966  57.890   9.865  0.00  0.00    -0.030 C 
ATOM     16  C19 UNL     1     -48.147  59.127   9.015  0.00  0.00    +0.032 C 
ATOM     17  C20 UNL     1     -47.241  59.197   7.740  0.00  0.00    +0.056 C 
BRANCH   9  18
ATOM     18  C7  UNL     1     -48.716  55.971   5.334  0.00  0.00    +0.108 C 
ATOM     19  C8  UNL     1     -47.700  55.002   4.670  0.00  0.00    +0.024 C 
ATOM     20  C9  UNL     1     -48.231  54.396   3.361  0.00  0.00    +0.002 C 
ATOM     21  C10 UNL     1     -49.233  53.257   3.576  0.00  0.00    +0.000 C 
ATOM     22  C11 UNL     1     -50.486  53.681   4.354  0.00  0.00    +0.000 C 
ATOM     23  C12 UNL     1     -50.202  53.871   5.853  0.00  0.00    +0.002 C 
ATOM     24  C13 UNL     1     -49.790  55.302   6.234  0.00  0.00    +0.024 C 
ENDBRANCH   9  18
ENDBRANCH   4   7
BRANCH   1  26
ATOM     25  C1  UNL     1     -50.462  64.924   3.686  0.00  0.00    +0.253 C 
ATOM     26  O1  UNL     1     -50.080  64.563   5.010  0.00  0.00    -0.468 OA
ENDBRANCH   1  26
BRANCH   6  27
ATOM     27  O3  UNL     1     -51.830  62.675   5.907  0.00  0.00    -0.472 OA
BRANCH  27  28
ATOM     28  C23 UNL     1     -52.449  63.370   6.988  0.00  0.00    +0.206 C 
BRANCH  28  29
ATOM     29  C24 UNL     1     -53.662  62.592   7.506  0.00  0.00    +0.051 C 
BRANCH  29  30
ATOM     30  C25 UNL     1     -53.234  61.306   8.223  0.00  0.00    +0.051 C 
BRANCH  30  31
ATOM     31  C26 UNL     1     -53.867  60.072   7.580  0.00  0.00    +0.206 C 
BRANCH  31  32
ATOM     32  O4  UNL     1     -52.976  59.539   6.601  0.00  0.00    -0.475 OA
BRANCH  32  33
ATOM     33  C27 UNL     1     -53.154  58.317   5.940  0.00  0.00    +0.139 A 
ATOM     34  C28 UNL     1     -53.788  57.281   6.630  0.00  0.00    +0.037 A 
ATOM     35  C29 UNL     1     -53.963  56.031   6.034  0.00  0.00    +0.006 A 
ATOM     36  C30 UNL     1     -53.519  55.796   4.718  0.00  0.00    +0.040 A 
ATOM     37  C32 UNL     1     -52.903  56.850   4.014  0.00  0.00    +0.006 A 
ATOM     38  C33 UNL     1     -52.716  58.096   4.621  0.00  0.00    +0.037 A 
BRANCH  36  39
ATOM     39  C31 UNL     1     -53.693  54.461   4.089  0.00  0.00    +0.208 A 
ATOM     40  N3  UNL     1     -53.839  54.233   2.765  0.00  0.00    -0.106 NA
ATOM     41  N4  UNL     1     -53.939  52.921   2.636  0.00  0.00    -0.021 NA
ATOM     42  N5  UNL     1     -53.863  52.352   3.826  0.00  0.00    -0.021 NA
ATOM     43  N6  UNL     1     -53.707  53.282   4.750  0.00  0.00    -0.106 NA
ENDBRANCH  36  39
ENDBRANCH  32  33
ENDBRANCH  31  32
ENDBRANCH  30  31
ENDBRANCH  29  30
ENDBRANCH  28  29
ENDBRANCH  27  28
ENDBRANCH   6  27
TORSDOF 11
ENDMDL
MODEL 7
REMARK VINA RESULT:      -6.7      3.290      9.075
REMARK  Name = ./data/4wxx_site2_bc02/pdb/l1c0.pdb
REMARK  11 active torsions:
REMARK  status: ('A' for Active; 'I' for Inactive)
REMARK    1  A    between atoms: O1_2  and  C2_3
REMARK    2  A    between atoms: C5_6  and  C6_7
REMARK    3  A    between atoms: N2_9  and  C7_10
REMARK    4  A    between atoms: C22_26  and  O3_27
REMARK    5  A    between atoms: O3_27  and  C23_28
REMARK    6  A    between atoms: C23_28  and  C24_29
REMARK    7  A    between atoms: C24_29  and  C25_30
REMARK    8  A    between atoms: C25_30  and  C26_31
REMARK    9  A    between atoms: C26_31  and  O4_32
REMARK   10  A    between atoms: O4_32  and  C27_33
REMARK   11  A    between atoms: C30_36  and  C31_37
REMARK                            x       y       z     vdW  Elec       q    Type
REMARK                         _______ _______ _______ _____ _____    ______ ____
ROOT
ATOM      1  C2  UNL     1     -51.058  56.190   5.285  0.00  0.00    +0.172 A 
ATOM      2  C3  UNL     1     -52.418  56.537   5.323  0.00  0.00    +0.040 A 
ATOM      3  C4  UNL     1     -52.804  57.862   5.532  0.00  0.00    +0.005 A 
ATOM      4  C5  UNL     1     -51.845  58.876   5.701  0.00  0.00    +0.018 A 
ATOM      5  C21 UNL     1     -50.482  58.525   5.647  0.00  0.00    +0.041 A 
ATOM      6  C22 UNL     1     -50.085  57.184   5.462  0.00  0.00    +0.172 A 
ENDROOT
BRANCH   4   7
ATOM      7  C6  UNL     1     -52.288  60.287   5.924  0.00  0.00    +0.079 C 
ATOM      8  N1  UNL     1     -52.696  60.981   4.902  0.00  0.00    -0.172 NA
ATOM      9  N2  UNL     1     -53.138  62.318   4.978  0.00  0.00    -0.222 N 
ATOM     10  C14 UNL     1     -53.421  62.869   6.137  0.00  0.00    +0.253 C 
ATOM     11  O2  UNL     1     -53.953  64.163   6.177  0.00  0.00    -0.271 OA
ATOM     12  C15 UNL     1     -53.253  62.073   7.426  0.00  0.00    +0.091 C 
ATOM     13  C16 UNL     1     -52.888  62.950   8.641  0.00  0.00    +0.035 C 
ATOM     14  C17 UNL     1     -51.573  63.624   8.396  0.00  0.00    -0.030 C 
ATOM     15  C18 UNL     1     -50.570  62.939   7.830  0.00  0.00    -0.030 C 
ATOM     16  C19 UNL     1     -50.702  61.470   7.500  0.00  0.00    +0.032 C 
ATOM     17  C20 UNL     1     -52.168  60.969   7.270  0.00  0.00    +0.056 C 
BRANCH   9  18
ATOM     18  C7  UNL     1     -53.335  63.021   3.692  0.00  0.00    +0.108 C 
ATOM     19  C8  UNL     1     -52.059  63.803   3.282  0.00  0.00    +0.024 C 
ATOM     20  C9  UNL     1     -52.378  65.076   2.482  0.00  0.00    +0.002 C 
ATOM     21  C10 UNL     1     -52.730  64.807   1.016  0.00  0.00    +0.000 C 
ATOM     22  C11 UNL     1     -53.959  63.907   0.835  0.00  0.00    +0.000 C 
ATOM     23  C12 UNL     1     -53.652  62.434   1.154  0.00  0.00    +0.002 C 
ATOM     24  C13 UNL     1     -53.900  62.048   2.621  0.00  0.00    +0.024 C 
ENDBRANCH   9  18
ENDBRANCH   4   7
BRANCH   1  26
ATOM     25  C1  UNL     1     -51.395  53.875   4.403  0.00  0.00    +0.253 C 
ATOM     26  O1  UNL     1     -50.631  54.869   5.077  0.00  0.00    -0.468 OA
ENDBRANCH   1  26
BRANCH   6  27
ATOM     27  O3  UNL     1     -48.735  56.794   5.443  0.00  0.00    -0.472 OA
BRANCH  27  28
ATOM     28  C23 UNL     1     -48.194  55.630   6.068  0.00  0.00    +0.206 C 
BRANCH  28  29
ATOM     29  C24 UNL     1     -46.889  55.209   5.386  0.00  0.00    +0.051 C 
BRANCH  29  30
ATOM     30  C25 UNL     1     -45.848  54.748   6.413  0.00  0.00    +0.051 C 
BRANCH  30  31
ATOM     31  C26 UNL     1     -44.567  55.578   6.320  0.00  0.00    +0.206 C 
BRANCH  31  32
ATOM     32  O4  UNL     1     -44.393  56.315   7.529  0.00  0.00    -0.475 OA
BRANCH  32  33
ATOM     33  C27 UNL     1     -45.418  56.979   8.216  0.00  0.00    +0.139 A 
ATOM     34  C28 UNL     1     -45.667  56.615   9.541  0.00  0.00    +0.037 A 
ATOM     35  C29 UNL     1     -46.697  57.218  10.264  0.00  0.00    +0.006 A 
ATOM     36  C30 UNL     1     -47.494  58.220   9.677  0.00  0.00    +0.040 A 
ATOM     37  C32 UNL     1     -47.225  58.604   8.348  0.00  0.00    +0.006 A 
ATOM     38  C33 UNL     1     -46.202  57.986   7.622  0.00  0.00    +0.037 A 
BRANCH  36  39
ATOM     39  C31 UNL     1     -48.600  58.852  10.442  0.00  0.00    +0.208 A 
ATOM     40  N3  UNL     1     -49.343  59.899  10.022  0.00  0.00    -0.106 NA
ATOM     41  N4  UNL     1     -50.220  60.126  10.985  0.00  0.00    -0.021 NA
ATOM     42  N5  UNL     1     -50.032  59.262  11.967  0.00  0.00    -0.021 NA
ATOM     43  N6  UNL     1     -49.034  58.455  11.659  0.00  0.00    -0.106 NA
ENDBRANCH  36  39
ENDBRANCH  32  33
ENDBRANCH  31  32
ENDBRANCH  30  31
ENDBRANCH  29  30
ENDBRANCH  28  29
ENDBRANCH  27  28
ENDBRANCH   6  27
TORSDOF 11
ENDMDL
