MODEL 1
REMARK VINA RESULT:      -9.2      0.000      0.000
REMARK  Name = ./data/4wxx_site2_bc02/pdb/l0c0.pdb
REMARK  11 active torsions:
REMARK  status: ('A' for Active; 'I' for Inactive)
REMARK    1  A    between atoms: O1_2  and  C2_3
REMARK    2  A    between atoms: C5_6  and  C6_7
REMARK    3  A    between atoms: N2_9  and  C7_10
REMARK    4  A    between atoms: C19_23  and  O3_24
REMARK    5  A    between atoms: O3_24  and  C20_25
REMARK    6  A    between atoms: C20_25  and  C21_26
REMARK    7  A    between atoms: C21_26  and  C22_27
REMARK    8  A    between atoms: C22_27  and  C23_28
REMARK    9  A    between atoms: C23_28  and  O4_29
REMARK   10  A    between atoms: O4_29  and  C24_30
REMARK   11  A    between atoms: C27_33  and  C28_34
REMARK                            x       y       z     vdW  Elec       q    Type
REMARK                         _______ _______ _______ _____ _____    ______ ____
ROOT
ATOM      1  C2  UNL     1     -52.265  62.879   7.128  0.00  0.00    +0.172 A 
ATOM      2  C3  UNL     1     -51.526  62.486   8.259  0.00  0.00    +0.040 A 
ATOM      3  C4  UNL     1     -50.758  61.320   8.239  0.00  0.00    +0.005 A 
ATOM      4  C5  UNL     1     -50.711  60.515   7.088  0.00  0.00    +0.019 A 
ATOM      5  C18 UNL     1     -51.473  60.900   5.969  0.00  0.00    +0.041 A 
ATOM      6  C19 UNL     1     -52.231  62.087   5.973  0.00  0.00    +0.172 A 
ENDROOT
BRANCH   4   7
ATOM      7  C6  UNL     1     -49.868  59.287   6.995  0.00  0.00    +0.086 C 
ATOM      8  N1  UNL     1     -50.349  58.192   6.498  0.00  0.00    -0.171 NA
ATOM      9  N2  UNL     1     -49.373  57.199   6.479  0.00  0.00    -0.222 N 
ATOM     10  C14 UNL     1     -48.268  57.655   6.970  0.00  0.00    +0.257 C 
ATOM     11  O2  UNL     1     -47.109  56.890   7.088  0.00  0.00    -0.270 OA
ATOM     12  C15 UNL     1     -48.406  59.097   7.376  0.00  0.00    +0.110 C 
ATOM     13  C16 UNL     1     -48.165  59.242   8.886  0.00  0.00    +0.015 C 
ATOM     14  C17 UNL     1     -47.455  59.963   6.530  0.00  0.00    +0.015 C 
BRANCH   9  15
ATOM     15  C7  UNL     1     -49.608  55.854   5.937  0.00  0.00    +0.108 C 
ATOM     16  C8  UNL     1     -51.112  55.683   5.630  0.00  0.00    +0.024 C 
ATOM     17  C9  UNL     1     -51.439  54.461   4.754  0.00  0.00    +0.002 C 
ATOM     18  C10 UNL     1     -51.420  54.801   3.254  0.00  0.00    +0.000 C 
ATOM     19  C11 UNL     1     -50.010  54.968   2.674  0.00  0.00    +0.000 C 
ATOM     20  C12 UNL     1     -49.179  56.056   3.372  0.00  0.00    +0.002 C 
ATOM     21  C13 UNL     1     -48.653  55.596   4.745  0.00  0.00    +0.024 C 
ENDBRANCH   9  15
ENDBRANCH   4   7
BRANCH   1  23
ATOM     22  C1  UNL     1     -53.705  64.591   8.252  0.00  0.00    +0.253 C 
ATOM     23  O1  UNL     1     -53.044  64.047   7.114  0.00  0.00    -0.468 OA
ENDBRANCH   1  23
BRANCH   6  24
ATOM     24  O3  UNL     1     -52.961  62.513   4.848  0.00  0.00    -0.472 OA
BRANCH  24  25
ATOM     25  C20 UNL     1     -53.850  61.697   4.081  0.00  0.00    +0.206 C 
BRANCH  25  26
ATOM     26  C21 UNL     1     -53.763  62.041   2.587  0.00  0.00    +0.051 C 
BRANCH  26  27
ATOM     27  C22 UNL     1     -53.880  63.554   2.368  0.00  0.00    +0.051 C 
BRANCH  27  28
ATOM     28  C23 UNL     1     -52.883  64.037   1.310  0.00  0.00    +0.206 C 
BRANCH  28  29
ATOM     29  O4  UNL     1     -52.314  65.289   1.694  0.00  0.00    -0.475 OA
BRANCH  29  30
ATOM     30  C24 UNL     1     -51.130  65.449   2.435  0.00  0.00    +0.139 A 
ATOM     31  C25 UNL     1     -50.776  64.596   3.498  0.00  0.00    +0.037 A 
ATOM     32  C26 UNL     1     -49.586  64.802   4.204  0.00  0.00    +0.006 A 
ATOM     33  C27 UNL     1     -48.724  65.858   3.859  0.00  0.00    +0.040 A 
ATOM     34  C29 UNL     1     -49.079  66.702   2.794  0.00  0.00    +0.006 A 
ATOM     35  C30 UNL     1     -50.271  66.497   2.091  0.00  0.00    +0.037 A 
BRANCH  33  36
ATOM     36  C28 UNL     1     -47.461  66.074   4.606  0.00  0.00    +0.208 A 
ATOM     37  N3  UNL     1     -47.069  65.376   5.696  0.00  0.00    -0.106 NA
ATOM     38  N4  UNL     1     -45.902  65.889   6.050  0.00  0.00    -0.021 NA
ATOM     39  N5  UNL     1     -45.576  66.862   5.216  0.00  0.00    -0.021 NA
ATOM     40  N6  UNL     1     -46.526  67.002   4.307  0.00  0.00    -0.106 NA
ENDBRANCH  33  36
ENDBRANCH  29  30
ENDBRANCH  28  29
ENDBRANCH  27  28
ENDBRANCH  26  27
ENDBRANCH  25  26
ENDBRANCH  24  25
ENDBRANCH   6  24
TORSDOF 11
ENDMDL
MODEL 2
REMARK VINA RESULT:      -8.2      4.578      7.230
REMARK  Name = ./data/4wxx_site2_bc02/pdb/l0c0.pdb
REMARK  11 active torsions:
REMARK  status: ('A' for Active; 'I' for Inactive)
REMARK    1  A    between atoms: O1_2  and  C2_3
REMARK    2  A    between atoms: C5_6  and  C6_7
REMARK    3  A    between atoms: N2_9  and  C7_10
REMARK    4  A    between atoms: C19_23  and  O3_24
REMARK    5  A    between atoms: O3_24  and  C20_25
REMARK    6  A    between atoms: C20_25  and  C21_26
REMARK    7  A    between atoms: C21_26  and  C22_27
REMARK    8  A    between atoms: C22_27  and  C23_28
REMARK    9  A    between atoms: C23_28  and  O4_29
REMARK   10  A    between atoms: O4_29  and  C24_30
REMARK   11  A    between atoms: C27_33  and  C28_34
REMARK                            x       y       z     vdW  Elec       q    Type
REMARK                         _______ _______ _______ _____ _____    ______ ____
ROOT
ATOM      1  C2  UNL     1     -49.486  60.863   5.973  0.00  0.00    +0.172 A 
ATOM      2  C3  UNL     1     -48.382  60.006   5.810  0.00  0.00    +0.040 A 
ATOM      3  C4  UNL     1     -48.568  58.652   5.521  0.00  0.00    +0.005 A 
ATOM      4  C5  UNL     1     -49.862  58.120   5.391  0.00  0.00    +0.019 A 
ATOM      5  C18 UNL     1     -50.961  58.978   5.581  0.00  0.00    +0.041 A 
ATOM      6  C19 UNL     1     -50.783  60.348   5.849  0.00  0.00    +0.172 A 
ENDROOT
BRANCH   4   7
ATOM      7  C6  UNL     1     -50.117  56.693   5.034  0.00  0.00    +0.086 C 
ATOM      8  N1  UNL     1     -51.323  56.222   5.016  0.00  0.00    -0.171 NA
ATOM      9  N2  UNL     1     -51.316  54.887   4.620  0.00  0.00    -0.222 N 
ATOM     10  C14 UNL     1     -50.105  54.501   4.390  0.00  0.00    +0.257 C 
ATOM     11  O2  UNL     1     -49.778  53.208   3.981  0.00  0.00    -0.270 OA
ATOM     12  C15 UNL     1     -49.124  55.620   4.610  0.00  0.00    +0.110 C 
ATOM     13  C16 UNL     1     -48.143  55.244   5.731  0.00  0.00    +0.015 C 
ATOM     14  C17 UNL     1     -48.419  55.954   3.283  0.00  0.00    +0.015 C 
BRANCH   9  15
ATOM     15  C7  UNL     1     -52.540  54.089   4.469  0.00  0.00    +0.108 C 
ATOM     16  C8  UNL     1     -52.160  52.626   4.150  0.00  0.00    +0.024 C 
ATOM     17  C9  UNL     1     -53.321  51.628   4.302  0.00  0.00    +0.002 C 
ATOM     18  C10 UNL     1     -53.399  51.042   5.721  0.00  0.00    +0.000 C 
ATOM     19  C11 UNL     1     -53.965  52.015   6.763  0.00  0.00    +0.000 C 
ATOM     20  C12 UNL     1     -53.169  53.323   6.882  0.00  0.00    +0.002 C 
ATOM     21  C13 UNL     1     -53.446  54.284   5.710  0.00  0.00    +0.024 C 
ENDBRANCH   9  15
ENDBRANCH   4   7
BRANCH   1  23
ATOM     22  C1  UNL     1     -48.267  63.041   5.780  0.00  0.00    +0.253 C 
ATOM     23  O1  UNL     1     -49.335  62.229   6.260  0.00  0.00    -0.468 OA
ENDBRANCH   1  23
BRANCH   6  24
ATOM     24  O3  UNL     1     -51.870  61.231   5.995  0.00  0.00    -0.472 OA
BRANCH  24  25
ATOM     25  C20 UNL     1     -52.256  61.873   7.212  0.00  0.00    +0.206 C 
BRANCH  25  26
ATOM     26  C21 UNL     1     -52.422  60.851   8.346  0.00  0.00    +0.051 C 
BRANCH  26  27
ATOM     27  C22 UNL     1     -51.651  61.292   9.595  0.00  0.00    +0.051 C 
BRANCH  27  28
ATOM     28  C23 UNL     1     -50.155  60.995   9.455  0.00  0.00    +0.206 C 
BRANCH  28  29
ATOM     29  O4  UNL     1     -49.741  60.044  10.437  0.00  0.00    -0.475 OA
BRANCH  29  30
ATOM     30  C24 UNL     1     -48.681  59.132  10.286  0.00  0.00    +0.139 A 
ATOM     31  C25 UNL     1     -48.308  58.224  11.296  0.00  0.00    +0.037 A 
ATOM     32  C26 UNL     1     -47.244  57.340  11.093  0.00  0.00    +0.006 A 
ATOM     33  C27 UNL     1     -46.535  57.340   9.879  0.00  0.00    +0.040 A 
ATOM     34  C29 UNL     1     -46.915  58.244   8.872  0.00  0.00    +0.006 A 
ATOM     35  C30 UNL     1     -47.978  59.130   9.077  0.00  0.00    +0.037 A 
BRANCH  33  36
ATOM     36  C28 UNL     1     -45.408  56.400   9.664  0.00  0.00    +0.208 A 
ATOM     37  N3  UNL     1     -44.599  55.916  10.634  0.00  0.00    -0.106 NA
ATOM     38  N4  UNL     1     -43.733  55.128  10.018  0.00  0.00    -0.021 NA
ATOM     39  N5  UNL     1     -43.990  55.116   8.721  0.00  0.00    -0.021 NA
ATOM     40  N6  UNL     1     -45.027  55.898   8.469  0.00  0.00    -0.106 NA
ENDBRANCH  33  36
ENDBRANCH  29  30
ENDBRANCH  28  29
ENDBRANCH  27  28
ENDBRANCH  26  27
ENDBRANCH  25  26
ENDBRANCH  24  25
ENDBRANCH   6  24
TORSDOF 11
ENDMDL
MODEL 3
REMARK VINA RESULT:      -7.7      2.925      6.558
REMARK  Name = ./data/4wxx_site2_bc02/pdb/l0c0.pdb
REMARK  11 active torsions:
REMARK  status: ('A' for Active; 'I' for Inactive)
REMARK    1  A    between atoms: O1_2  and  C2_3
REMARK    2  A    between atoms: C5_6  and  C6_7
REMARK    3  A    between atoms: N2_9  and  C7_10
REMARK    4  A    between atoms: C19_23  and  O3_24
REMARK    5  A    between atoms: O3_24  and  C20_25
REMARK    6  A    between atoms: C20_25  and  C21_26
REMARK    7  A    between atoms: C21_26  and  C22_27
REMARK    8  A    between atoms: C22_27  and  C23_28
REMARK    9  A    between atoms: C23_28  and  O4_29
REMARK   10  A    between atoms: O4_29  and  C24_30
REMARK   11  A    between atoms: C27_33  and  C28_34
REMARK                            x       y       z     vdW  Elec       q    Type
REMARK                         _______ _______ _______ _____ _____    ______ ____
ROOT
ATOM      1  C2  UNL     1     -44.887  56.507   7.746  0.00  0.00    +0.172 A 
ATOM      2  C3  UNL     1     -44.770  55.723   6.583  0.00  0.00    +0.040 A 
ATOM      3  C4  UNL     1     -45.887  55.460   5.786  0.00  0.00    +0.005 A 
ATOM      4  C5  UNL     1     -47.149  55.971   6.132  0.00  0.00    +0.019 A 
ATOM      5  C18 UNL     1     -47.263  56.734   7.310  0.00  0.00    +0.041 A 
ATOM      6  C19 UNL     1     -46.138  57.024   8.106  0.00  0.00    +0.172 A 
ENDROOT
BRANCH   4   7
ATOM      7  C6  UNL     1     -48.364  55.763   5.291  0.00  0.00    +0.086 C 
ATOM      8  N1  UNL     1     -49.400  56.529   5.425  0.00  0.00    -0.171 NA
ATOM      9  N2  UNL     1     -50.389  56.170   4.513  0.00  0.00    -0.222 N 
ATOM     10  C14 UNL     1     -49.989  55.171   3.798  0.00  0.00    +0.257 C 
ATOM     11  O2  UNL     1     -50.766  54.585   2.799  0.00  0.00    -0.270 OA
ATOM     12  C15 UNL     1     -48.596  54.750   4.178  0.00  0.00    +0.110 C 
ATOM     13  C16 UNL     1     -48.609  53.301   4.691  0.00  0.00    +0.015 C 
ATOM     14  C17 UNL     1     -47.651  54.955   2.981  0.00  0.00    +0.015 C 
BRANCH   9  15
ATOM     15  C7  UNL     1     -51.670  56.879   4.400  0.00  0.00    +0.108 C 
ATOM     16  C8  UNL     1     -52.700  56.229   5.350  0.00  0.00    +0.024 C 
ATOM     17  C9  UNL     1     -53.965  57.074   5.579  0.00  0.00    +0.002 C 
ATOM     18  C10 UNL     1     -53.819  58.023   6.780  0.00  0.00    +0.000 C 
ATOM     19  C11 UNL     1     -52.931  59.243   6.502  0.00  0.00    +0.000 C 
ATOM     20  C12 UNL     1     -51.503  58.880   6.065  0.00  0.00    +0.002 C 
ATOM     21  C13 UNL     1     -51.446  58.399   4.603  0.00  0.00    +0.024 C 
ENDBRANCH   9  15
ENDBRANCH   4   7
BRANCH   1  23
ATOM     22  C1  UNL     1     -43.402  56.024   9.703  0.00  0.00    +0.253 C 
ATOM     23  O1  UNL     1     -43.785  56.794   8.567  0.00  0.00    -0.468 OA
ENDBRANCH   1  23
BRANCH   6  24
ATOM     24  O3  UNL     1     -46.224  57.824   9.261  0.00  0.00    -0.472 OA
BRANCH  24  25
ATOM     25  C20 UNL     1     -47.429  58.132   9.967  0.00  0.00    +0.206 C 
BRANCH  25  26
ATOM     26  C21 UNL     1     -48.170  59.303   9.307  0.00  0.00    +0.051 C 
BRANCH  26  27
ATOM     27  C22 UNL     1     -49.332  59.778  10.187  0.00  0.00    +0.051 C 
BRANCH  27  28
ATOM     28  C23 UNL     1     -49.886  61.118   9.693  0.00  0.00    +0.206 C 
BRANCH  28  29
ATOM     29  O4  UNL     1     -50.014  61.113   8.270  0.00  0.00    -0.475 OA
BRANCH  29  30
ATOM     30  C24 UNL     1     -49.609  62.152   7.416  0.00  0.00    +0.139 A 
ATOM     31  C25 UNL     1     -50.398  63.293   7.176  0.00  0.00    +0.037 A 
ATOM     32  C26 UNL     1     -49.947  64.298   6.314  0.00  0.00    +0.006 A 
ATOM     33  C27 UNL     1     -48.697  64.187   5.679  0.00  0.00    +0.040 A 
ATOM     34  C29 UNL     1     -47.911  63.049   5.926  0.00  0.00    +0.006 A 
ATOM     35  C30 UNL     1     -48.365  62.044   6.786  0.00  0.00    +0.037 A 
BRANCH  33  36
ATOM     36  C28 UNL     1     -48.218  65.254   4.767  0.00  0.00    +0.208 A 
ATOM     37  N3  UNL     1     -47.109  66.004   4.956  0.00  0.00    -0.106 NA
ATOM     38  N4  UNL     1     -47.056  66.831   3.925  0.00  0.00    -0.021 NA
ATOM     39  N5  UNL     1     -48.083  66.607   3.124  0.00  0.00    -0.021 NA
ATOM     40  N6  UNL     1     -48.826  65.631   3.621  0.00  0.00    -0.106 NA
ENDBRANCH  33  36
ENDBRANCH  29  30
ENDBRANCH  28  29
ENDBRANCH  27  28
ENDBRANCH  26  27
ENDBRANCH  25  26
ENDBRANCH  24  25
ENDBRANCH   6  24
TORSDOF 11
ENDMDL
MODEL 4
REMARK VINA RESULT:      -7.6      2.514      9.001
REMARK  Name = ./data/4wxx_site2_bc02/pdb/l0c0.pdb
REMARK  11 active torsions:
REMARK  status: ('A' for Active; 'I' for Inactive)
REMARK    1  A    between atoms: O1_2  and  C2_3
REMARK    2  A    between atoms: C5_6  and  C6_7
REMARK    3  A    between atoms: N2_9  and  C7_10
REMARK    4  A    between atoms: C19_23  and  O3_24
REMARK    5  A    between atoms: O3_24  and  C20_25
REMARK    6  A    between atoms: C20_25  and  C21_26
REMARK    7  A    between atoms: C21_26  and  C22_27
REMARK    8  A    between atoms: C22_27  and  C23_28
REMARK    9  A    between atoms: C23_28  and  O4_29
REMARK   10  A    between atoms: O4_29  and  C24_30
REMARK   11  A    between atoms: C27_33  and  C28_34
REMARK                            x       y       z     vdW  Elec       q    Type
REMARK                         _______ _______ _______ _____ _____    ______ ____
ROOT
ATOM      1  C2  UNL     1     -53.453  59.953   6.610  0.00  0.00    +0.172 A 
ATOM      2  C3  UNL     1     -53.949  60.249   5.327  0.00  0.00    +0.040 A 
ATOM      3  C4  UNL     1     -53.437  61.323   4.595  0.00  0.00    +0.005 A 
ATOM      4  C5  UNL     1     -52.419  62.130   5.128  0.00  0.00    +0.019 A 
ATOM      5  C18 UNL     1     -51.945  61.845   6.422  0.00  0.00    +0.041 A 
ATOM      6  C19 UNL     1     -52.438  60.750   7.158  0.00  0.00    +0.172 A 
ENDROOT
BRANCH   4   7
ATOM      7  C6  UNL     1     -51.802  63.258   4.370  0.00  0.00    +0.086 C 
ATOM      8  N1  UNL     1     -50.520  63.444   4.389  0.00  0.00    -0.171 NA
ATOM      9  N2  UNL     1     -50.175  64.526   3.583  0.00  0.00    -0.222 N 
ATOM     10  C14 UNL     1     -51.236  65.037   3.052  0.00  0.00    +0.257 C 
ATOM     11  O2  UNL     1     -51.210  66.139   2.198  0.00  0.00    -0.270 OA
ATOM     12  C15 UNL     1     -52.471  64.286   3.468  0.00  0.00    +0.110 C 
ATOM     13  C16 UNL     1     -53.419  65.220   4.237  0.00  0.00    +0.015 C 
ATOM     14  C17 UNL     1     -53.129  63.651   2.230  0.00  0.00    +0.015 C 
BRANCH   9  15
ATOM     15  C7  UNL     1     -48.787  64.960   3.374  0.00  0.00    +0.108 C 
ATOM     16  C8  UNL     1     -48.706  66.496   3.518  0.00  0.00    +0.024 C 
ATOM     17  C9  UNL     1     -47.273  67.038   3.659  0.00  0.00    +0.002 C 
ATOM     18  C10 UNL     1     -46.826  67.121   5.128  0.00  0.00    +0.000 C 
ATOM     19  C11 UNL     1     -46.481  65.761   5.748  0.00  0.00    +0.000 C 
ATOM     20  C12 UNL     1     -47.639  64.753   5.707  0.00  0.00    +0.002 C 
ATOM     21  C13 UNL     1     -47.843  64.155   4.302  0.00  0.00    +0.024 C 
ENDBRANCH   9  15
ENDBRANCH   4   7
BRANCH   1  23
ATOM     22  C1  UNL     1     -53.965  57.524   6.933  0.00  0.00    +0.253 C 
ATOM     23  O1  UNL     1     -53.942  58.879   7.371  0.00  0.00    -0.468 OA
ENDBRANCH   1  23
BRANCH   6  24
ATOM     24  O3  UNL     1     -51.945  60.420   8.433  0.00  0.00    -0.472 OA
BRANCH  24  25
ATOM     25  C20 UNL     1     -51.113  61.258   9.241  0.00  0.00    +0.206 C 
BRANCH  25  26
ATOM     26  C21 UNL     1     -49.962  60.455   9.864  0.00  0.00    +0.051 C 
BRANCH  26  27
ATOM     27  C22 UNL     1     -49.161  59.720   8.783  0.00  0.00    +0.051 C 
BRANCH  27  28
ATOM     28  C23 UNL     1     -48.697  60.685   7.688  0.00  0.00    +0.206 C 
BRANCH  28  29
ATOM     29  O4  UNL     1     -48.893  60.107   6.397  0.00  0.00    -0.475 OA
BRANCH  29  30
ATOM     30  C24 UNL     1     -48.976  58.730   6.129  0.00  0.00    +0.139 A 
ATOM     31  C25 UNL     1     -47.927  57.834   6.411  0.00  0.00    +0.037 A 
ATOM     32  C26 UNL     1     -48.064  56.472   6.123  0.00  0.00    +0.006 A 
ATOM     33  C27 UNL     1     -49.250  55.977   5.554  0.00  0.00    +0.040 A 
ATOM     34  C29 UNL     1     -50.296  56.874   5.280  0.00  0.00    +0.006 A 
ATOM     35  C30 UNL     1     -50.157  58.236   5.566  0.00  0.00    +0.037 A 
BRANCH  33  36
ATOM     36  C28 UNL     1     -49.394  54.532   5.250  0.00  0.00    +0.208 A 
ATOM     37  N3  UNL     1     -48.414  53.608   5.366  0.00  0.00    -0.106 NA
ATOM     38  N4  UNL     1     -48.957  52.460   4.992  0.00  0.00    -0.021 NA
ATOM     39  N5  UNL     1     -50.221  52.657   4.661  0.00  0.00    -0.021 NA
ATOM     40  N6  UNL     1     -50.524  53.936   4.810  0.00  0.00    -0.106 NA
ENDBRANCH  33  36
ENDBRANCH  29  30
ENDBRANCH  28  29
ENDBRANCH  27  28
ENDBRANCH  26  27
ENDBRANCH  25  26
ENDBRANCH  24  25
ENDBRANCH   6  24
TORSDOF 11
ENDMDL
MODEL 5
REMARK VINA RESULT:      -7.3      3.036      6.269
REMARK  Name = ./data/4wxx_site2_bc02/pdb/l0c0.pdb
REMARK  11 active torsions:
REMARK  status: ('A' for Active; 'I' for Inactive)
REMARK    1  A    between atoms: O1_2  and  C2_3
REMARK    2  A    between atoms: C5_6  and  C6_7
REMARK    3  A    between atoms: N2_9  and  C7_10
REMARK    4  A    between atoms: C19_23  and  O3_24
REMARK    5  A    between atoms: O3_24  and  C20_25
REMARK    6  A    between atoms: C20_25  and  C21_26
REMARK    7  A    between atoms: C21_26  and  C22_27
REMARK    8  A    between atoms: C22_27  and  C23_28
REMARK    9  A    between atoms: C23_28  and  O4_29
REMARK   10  A    between atoms: O4_29  and  C24_30
REMARK   11  A    between atoms: C27_33  and  C28_34
REMARK                            x       y       z     vdW  Elec       q    Type
REMARK                         _______ _______ _______ _____ _____    ______ ____
ROOT
ATOM      1  C2  UNL     1     -45.663  56.484   7.558  0.00  0.00    +0.172 A 
ATOM      2  C3  UNL     1     -45.576  55.266   6.860  0.00  0.00    +0.040 A 
ATOM      3  C4  UNL     1     -46.630  54.830   6.054  0.00  0.00    +0.005 A 
ATOM      4  C5  UNL     1     -47.799  55.599   5.928  0.00  0.00    +0.019 A 
ATOM      5  C18 UNL     1     -47.889  56.804   6.649  0.00  0.00    +0.041 A 
ATOM      6  C19 UNL     1     -46.823  57.263   7.445  0.00  0.00    +0.172 A 
ENDROOT
BRANCH   4   7
ATOM      7  C6  UNL     1     -48.934  55.205   5.042  0.00  0.00    +0.086 C 
ATOM      8  N1  UNL     1     -50.077  54.863   5.545  0.00  0.00    -0.171 NA
ATOM      9  N2  UNL     1     -50.987  54.576   4.530  0.00  0.00    -0.222 N 
ATOM     10  C14 UNL     1     -50.425  54.728   3.377  0.00  0.00    +0.257 C 
ATOM     11  O2  UNL     1     -51.085  54.507   2.169  0.00  0.00    -0.270 OA
ATOM     12  C15 UNL     1     -48.996  55.176   3.521  0.00  0.00    +0.110 C 
ATOM     13  C16 UNL     1     -48.054  54.127   2.910  0.00  0.00    +0.015 C 
ATOM     14  C17 UNL     1     -48.829  56.571   2.893  0.00  0.00    +0.015 C 
BRANCH   9  15
ATOM     15  C7  UNL     1     -52.381  54.193   4.789  0.00  0.00    +0.108 C 
ATOM     16  C8  UNL     1     -52.660  52.817   4.145  0.00  0.00    +0.024 C 
ATOM     17  C9  UNL     1     -53.963  52.153   4.623  0.00  0.00    +0.002 C 
ATOM     18  C10 UNL     1     -53.741  51.260   5.855  0.00  0.00    +0.000 C 
ATOM     19  C11 UNL     1     -53.541  52.041   7.159  0.00  0.00    +0.000 C 
ATOM     20  C12 UNL     1     -52.357  53.019   7.118  0.00  0.00    +0.002 C 
ATOM     21  C13 UNL     1     -52.677  54.289   6.306  0.00  0.00    +0.024 C 
ENDBRANCH   9  15
ENDBRANCH   4   7
BRANCH   1  23
ATOM     22  C1  UNL     1     -43.746  56.119   9.126  0.00  0.00    +0.253 C 
ATOM     23  O1  UNL     1     -44.621  56.954   8.374  0.00  0.00    -0.468 OA
ENDBRANCH   1  23
BRANCH   6  24
ATOM     24  O3  UNL     1     -46.876  58.488   8.136  0.00  0.00    -0.472 OA
BRANCH  24  25
ATOM     25  C20 UNL     1     -47.817  58.820   9.159  0.00  0.00    +0.206 C 
BRANCH  25  26
ATOM     26  C21 UNL     1     -49.056  59.506   8.567  0.00  0.00    +0.051 C 
BRANCH  26  27
ATOM     27  C22 UNL     1     -49.602  60.570   9.526  0.00  0.00    +0.051 C 
BRANCH  27  28
ATOM     28  C23 UNL     1     -50.876  61.214   8.970  0.00  0.00    +0.206 C 
BRANCH  28  29
ATOM     29  O4  UNL     1     -50.726  61.498   7.578  0.00  0.00    -0.475 OA
BRANCH  29  30
ATOM     30  C24 UNL     1     -49.944  62.535   7.042  0.00  0.00    +0.139 A 
ATOM     31  C25 UNL     1     -50.302  63.893   7.150  0.00  0.00    +0.037 A 
ATOM     32  C26 UNL     1     -49.487  64.885   6.595  0.00  0.00    +0.006 A 
ATOM     33  C27 UNL     1     -48.298  64.544   5.928  0.00  0.00    +0.040 A 
ATOM     34  C29 UNL     1     -47.942  63.188   5.828  0.00  0.00    +0.006 A 
ATOM     35  C30 UNL     1     -48.760  62.196   6.380  0.00  0.00    +0.037 A 
BRANCH  33  36
ATOM     36  C28 UNL     1     -47.433  65.597   5.342  0.00  0.00    +0.208 A 
ATOM     37  N3  UNL     1     -46.287  66.060   5.889  0.00  0.00    -0.106 NA
ATOM     38  N4  UNL     1     -45.842  66.989   5.058  0.00  0.00    -0.021 NA
ATOM     39  N5  UNL     1     -46.672  67.099   4.034  0.00  0.00    -0.021 NA
ATOM     40  N6  UNL     1     -47.672  66.247   4.182  0.00  0.00    -0.106 NA
ENDBRANCH  33  36
ENDBRANCH  29  30
ENDBRANCH  28  29
ENDBRANCH  27  28
ENDBRANCH  26  27
ENDBRANCH  25  26
ENDBRANCH  24  25
ENDBRANCH   6  24
TORSDOF 11
ENDMDL
MODEL 6
REMARK VINA RESULT:      -7.2      2.961      8.801
REMARK  Name = ./data/4wxx_site2_bc02/pdb/l0c0.pdb
REMARK  11 active torsions:
REMARK  status: ('A' for Active; 'I' for Inactive)
REMARK    1  A    between atoms: O1_2  and  C2_3
REMARK    2  A    between atoms: C5_6  and  C6_7
REMARK    3  A    between atoms: N2_9  and  C7_10
REMARK    4  A    between atoms: C19_23  and  O3_24
REMARK    5  A    between atoms: O3_24  and  C20_25
REMARK    6  A    between atoms: C20_25  and  C21_26
REMARK    7  A    between atoms: C21_26  and  C22_27
REMARK    8  A    between atoms: C22_27  and  C23_28
REMARK    9  A    between atoms: C23_28  and  O4_29
REMARK   10  A    between atoms: O4_29  and  C24_30
REMARK   11  A    between atoms: C27_33  and  C28_34
REMARK                            x       y       z     vdW  Elec       q    Type
REMARK                         _______ _______ _______ _____ _____    ______ ____
ROOT
ATOM      1  C2  UNL     1     -48.416  59.721   6.760  0.00  0.00    +0.172 A 
ATOM      2  C3  UNL     1     -47.961  61.051   6.821  0.00  0.00    +0.040 A 
ATOM      3  C4  UNL     1     -48.809  62.110   6.484  0.00  0.00    +0.005 A 
ATOM      4  C5  UNL     1     -50.130  61.865   6.076  0.00  0.00    +0.019 A 
ATOM      5  C18 UNL     1     -50.570  60.531   5.994  0.00  0.00    +0.041 A 
ATOM      6  C19 UNL     1     -49.731  59.459   6.354  0.00  0.00    +0.172 A 
ENDROOT
BRANCH   4   7
ATOM      7  C6  UNL     1     -51.092  62.960   5.754  0.00  0.00    +0.086 C 
ATOM      8  N1  UNL     1     -51.419  63.212   4.526  0.00  0.00    -0.171 NA
ATOM      9  N2  UNL     1     -52.353  64.244   4.476  0.00  0.00    -0.222 N 
ATOM     10  C14 UNL     1     -52.620  64.657   5.670  0.00  0.00    +0.257 C 
ATOM     11  O2  UNL     1     -53.518  65.689   5.941  0.00  0.00    -0.270 OA
ATOM     12  C15 UNL     1     -51.850  63.879   6.702  0.00  0.00    +0.110 C 
ATOM     13  C16 UNL     1     -50.921  64.820   7.483  0.00  0.00    +0.015 C 
ATOM     14  C17 UNL     1     -52.832  63.116   7.609  0.00  0.00    +0.015 C 
BRANCH   9  15
ATOM     15  C7  UNL     1     -52.943  64.731   3.222  0.00  0.00    +0.108 C 
ATOM     16  C8  UNL     1     -51.813  65.116   2.242  0.00  0.00    +0.024 C 
ATOM     17  C9  UNL     1     -52.281  65.316   0.790  0.00  0.00    +0.002 C 
ATOM     18  C10 UNL     1     -52.215  64.014  -0.026  0.00  0.00    +0.000 C 
ATOM     19  C11 UNL     1     -53.332  63.017   0.305  0.00  0.00    +0.000 C 
ATOM     20  C12 UNL     1     -53.367  62.597   1.782  0.00  0.00    +0.002 C 
ATOM     21  C13 UNL     1     -53.962  63.694   2.687  0.00  0.00    +0.024 C 
ENDBRANCH   9  15
ENDBRANCH   4   7
BRANCH   1  23
ATOM     22  C1  UNL     1     -47.210  58.291   8.424  0.00  0.00    +0.253 C 
ATOM     23  O1  UNL     1     -47.592  58.634   7.095  0.00  0.00    -0.468 OA
ENDBRANCH   1  23
BRANCH   6  24
ATOM     24  O3  UNL     1     -50.168  58.122   6.323  0.00  0.00    -0.472 OA
BRANCH  24  25
ATOM     25  C20 UNL     1     -51.493  57.692   6.004  0.00  0.00    +0.206 C 
BRANCH  25  26
ATOM     26  C21 UNL     1     -51.527  56.975   4.646  0.00  0.00    +0.051 C 
BRANCH  26  27
ATOM     27  C22 UNL     1     -51.598  55.455   4.833  0.00  0.00    +0.051 C 
BRANCH  27  28
ATOM     28  C23 UNL     1     -50.955  54.723   3.651  0.00  0.00    +0.206 C 
BRANCH  28  29
ATOM     29  O4  UNL     1     -49.944  53.825   4.111  0.00  0.00    -0.475 OA
BRANCH  29  30
ATOM     30  C24 UNL     1     -48.788  54.198   4.819  0.00  0.00    +0.139 A 
ATOM     31  C25 UNL     1     -48.104  53.318   5.678  0.00  0.00    +0.037 A 
ATOM     32  C26 UNL     1     -46.959  53.742   6.360  0.00  0.00    +0.006 A 
ATOM     33  C27 UNL     1     -46.471  55.050   6.193  0.00  0.00    +0.040 A 
ATOM     34  C29 UNL     1     -47.155  55.923   5.330  0.00  0.00    +0.006 A 
ATOM     35  C30 UNL     1     -48.301  55.498   4.651  0.00  0.00    +0.037 A 
BRANCH  33  36
ATOM     36  C28 UNL     1     -45.255  55.499   6.915  0.00  0.00    +0.208 A 
ATOM     37  N3  UNL     1     -44.263  56.247   6.383  0.00  0.00    -0.106 NA
ATOM     38  N4  UNL     1     -43.378  56.411   7.354  0.00  0.00    -0.021 NA
ATOM     39  N5  UNL     1     -43.801  55.797   8.445  0.00  0.00    -0.021 NA
ATOM     40  N6  UNL     1     -44.966  55.219   8.205  0.00  0.00    -0.106 NA
ENDBRANCH  33  36
ENDBRANCH  29  30
ENDBRANCH  28  29
ENDBRANCH  27  28
ENDBRANCH  26  27
ENDBRANCH  25  26
ENDBRANCH  24  25
ENDBRANCH   6  24
TORSDOF 11
ENDMDL
MODEL 7
REMARK VINA RESULT:      -6.6      3.429      9.328
REMARK  Name = ./data/4wxx_site2_bc02/pdb/l0c0.pdb
REMARK  11 active torsions:
REMARK  status: ('A' for Active; 'I' for Inactive)
REMARK    1  A    between atoms: O1_2  and  C2_3
REMARK    2  A    between atoms: C5_6  and  C6_7
REMARK    3  A    between atoms: N2_9  and  C7_10
REMARK    4  A    between atoms: C19_23  and  O3_24
REMARK    5  A    between atoms: O3_24  and  C20_25
REMARK    6  A    between atoms: C20_25  and  C21_26
REMARK    7  A    between atoms: C21_26  and  C22_27
REMARK    8  A    between atoms: C22_27  and  C23_28
REMARK    9  A    between atoms: C23_28  and  O4_29
REMARK   10  A    between atoms: O4_29  and  C24_30
REMARK   11  A    between atoms: C27_33  and  C28_34
REMARK                            x       y       z     vdW  Elec       q    Type
REMARK                         _______ _______ _______ _____ _____    ______ ____
ROOT
ATOM      1  C2  UNL     1     -47.073  65.998   5.009  0.00  0.00    +0.172 A 
ATOM      2  C3  UNL     1     -47.025  67.044   4.069  0.00  0.00    +0.040 A 
ATOM      3  C4  UNL     1     -48.030  67.187   3.110  0.00  0.00    +0.005 A 
ATOM      4  C5  UNL     1     -49.107  66.286   3.063  0.00  0.00    +0.019 A 
ATOM      5  C18 UNL     1     -49.135  65.227   3.990  0.00  0.00    +0.041 A 
ATOM      6  C19 UNL     1     -48.139  65.090   4.976  0.00  0.00    +0.172 A 
ENDROOT
BRANCH   4   7
ATOM      7  C6  UNL     1     -50.232  66.422   2.092  0.00  0.00    +0.086 C 
ATOM      8  N1  UNL     1     -51.117  65.483   1.971  0.00  0.00    -0.171 NA
ATOM      9  N2  UNL     1     -52.084  65.847   1.039  0.00  0.00    -0.222 N 
ATOM     10  C14 UNL     1     -51.818  67.016   0.558  0.00  0.00    +0.257 C 
ATOM     11  O2  UNL     1     -52.606  67.647  -0.403  0.00  0.00    -0.270 OA
ATOM     12  C15 UNL     1     -50.572  67.589   1.176  0.00  0.00    +0.110 C 
ATOM     13  C16 UNL     1     -49.507  67.820   0.093  0.00  0.00    +0.015 C 
ATOM     14  C17 UNL     1     -50.925  68.870   1.953  0.00  0.00    +0.015 C 
BRANCH   9  15
ATOM     15  C7  UNL     1     -53.240  65.001   0.711  0.00  0.00    +0.108 C 
ATOM     16  C8  UNL     1     -52.814  63.932  -0.319  0.00  0.00    +0.024 C 
ATOM     17  C9  UNL     1     -53.826  62.786  -0.490  0.00  0.00    +0.002 C 
ATOM     18  C10 UNL     1     -53.548  61.619   0.473  0.00  0.00    +0.000 C 
ATOM     19  C11 UNL     1     -53.958  61.902   1.924  0.00  0.00    +0.000 C 
ATOM     20  C12 UNL     1     -53.269  63.133   2.531  0.00  0.00    +0.002 C 
ATOM     21  C13 UNL     1     -53.873  64.453   2.014  0.00  0.00    +0.024 C 
ENDBRANCH   9  15
ENDBRANCH   4   7
BRANCH   1  23
ATOM     22  C1  UNL     1     -44.680  65.869   5.735  0.00  0.00    +0.253 C 
ATOM     23  O1  UNL     1     -46.081  65.828   5.989  0.00  0.00    -0.468 OA
ENDBRANCH   1  23
BRANCH   6  24
ATOM     24  O3  UNL     1     -48.175  64.066   5.940  0.00  0.00    -0.472 OA
BRANCH  24  25
ATOM     25  C20 UNL     1     -48.680  62.745   5.727  0.00  0.00    +0.206 C 
BRANCH  25  26
ATOM     26  C21 UNL     1     -49.412  62.226   6.972  0.00  0.00    +0.051 C 
BRANCH  26  27
ATOM     27  C22 UNL     1     -50.679  61.458   6.581  0.00  0.00    +0.051 C 
BRANCH  27  28
ATOM     28  C23 UNL     1     -50.602  59.997   7.036  0.00  0.00    +0.206 C 
BRANCH  28  29
ATOM     29  O4  UNL     1     -49.517  59.329   6.389  0.00  0.00    -0.475 OA
BRANCH  29  30
ATOM     30  C24 UNL     1     -48.479  58.646   7.045  0.00  0.00    +0.139 A 
ATOM     31  C25 UNL     1     -47.969  59.051   8.293  0.00  0.00    +0.037 A 
ATOM     32  C26 UNL     1     -46.934  58.334   8.901  0.00  0.00    +0.006 A 
ATOM     33  C27 UNL     1     -46.391  57.196   8.278  0.00  0.00    +0.040 A 
ATOM     34  C29 UNL     1     -46.907  56.792   7.035  0.00  0.00    +0.006 A 
ATOM     35  C30 UNL     1     -47.941  57.512   6.428  0.00  0.00    +0.037 A 
BRANCH  33  36
ATOM     36  C28 UNL     1     -45.293  56.435   8.925  0.00  0.00    +0.208 A 
ATOM     37  N3  UNL     1     -44.331  55.746   8.272  0.00  0.00    -0.106 NA
ATOM     38  N4  UNL     1     -43.568  55.215   9.214  0.00  0.00    -0.021 NA
ATOM     39  N5  UNL     1     -44.031  55.560  10.404  0.00  0.00    -0.021 NA
ATOM     40  N6  UNL     1     -45.105  56.318  10.257  0.00  0.00    -0.106 NA
ENDBRANCH  33  36
ENDBRANCH  29  30
ENDBRANCH  28  29
ENDBRANCH  27  28
ENDBRANCH  26  27
ENDBRANCH  25  26
ENDBRANCH  24  25
ENDBRANCH   6  24
TORSDOF 11
ENDMDL
MODEL 8
REMARK VINA RESULT:      -6.3      2.122      3.386
REMARK  Name = ./data/4wxx_site2_bc02/pdb/l0c0.pdb
REMARK  11 active torsions:
REMARK  status: ('A' for Active; 'I' for Inactive)
REMARK    1  A    between atoms: O1_2  and  C2_3
REMARK    2  A    between atoms: C5_6  and  C6_7
REMARK    3  A    between atoms: N2_9  and  C7_10
REMARK    4  A    between atoms: C19_23  and  O3_24
REMARK    5  A    between atoms: O3_24  and  C20_25
REMARK    6  A    between atoms: C20_25  and  C21_26
REMARK    7  A    between atoms: C21_26  and  C22_27
REMARK    8  A    between atoms: C22_27  and  C23_28
REMARK    9  A    between atoms: C23_28  and  O4_29
REMARK   10  A    between atoms: O4_29  and  C24_30
REMARK   11  A    between atoms: C27_33  and  C28_34
REMARK                            x       y       z     vdW  Elec       q    Type
REMARK                         _______ _______ _______ _____ _____    ______ ____
ROOT
ATOM      1  C2  UNL     1     -51.879  62.325   7.286  0.00  0.00    +0.172 A 
ATOM      2  C3  UNL     1     -50.566  62.608   7.706  0.00  0.00    +0.040 A 
ATOM      3  C4  UNL     1     -49.583  61.615   7.689  0.00  0.00    +0.005 A 
ATOM      4  C5  UNL     1     -49.888  60.315   7.255  0.00  0.00    +0.019 A 
ATOM      5  C18 UNL     1     -51.210  60.033   6.860  0.00  0.00    +0.041 A 
ATOM      6  C19 UNL     1     -52.201  61.033   6.851  0.00  0.00    +0.172 A 
ENDROOT
BRANCH   4   7
ATOM      7  C6  UNL     1     -48.866  59.231   7.169  0.00  0.00    +0.086 C 
ATOM      8  N1  UNL     1     -47.793  59.276   7.893  0.00  0.00    -0.171 NA
ATOM      9  N2  UNL     1     -47.011  58.145   7.672  0.00  0.00    -0.222 N 
ATOM     10  C14 UNL     1     -47.580  57.377   6.803  0.00  0.00    +0.257 C 
ATOM     11  O2  UNL     1     -47.033  56.169   6.373  0.00  0.00    -0.270 OA
ATOM     12  C15 UNL     1     -48.892  57.953   6.341  0.00  0.00    +0.110 C 
ATOM     13  C16 UNL     1     -48.841  58.227   4.830  0.00  0.00    +0.015 C 
ATOM     14  C17 UNL     1     -50.038  57.009   6.742  0.00  0.00    +0.015 C 
BRANCH   9  15
ATOM     15  C7  UNL     1     -45.747  57.894   8.377  0.00  0.00    +0.108 C 
ATOM     16  C8  UNL     1     -45.926  56.695   9.334  0.00  0.00    +0.024 C 
ATOM     17  C9  UNL     1     -44.605  56.120   9.873  0.00  0.00    +0.002 C 
ATOM     18  C10 UNL     1     -44.047  55.005   8.973  0.00  0.00    +0.000 C 
ATOM     19  C11 UNL     1     -43.412  55.518   7.674  0.00  0.00    +0.000 C 
ATOM     20  C12 UNL     1     -44.372  56.337   6.799  0.00  0.00    +0.002 C 
ATOM     21  C13 UNL     1     -44.595  57.758   7.350  0.00  0.00    +0.024 C 
ENDBRANCH   9  15
ENDBRANCH   4   7
BRANCH   1  23
ATOM     22  C1  UNL     1     -53.698  63.624   8.414  0.00  0.00    +0.253 C 
ATOM     23  O1  UNL     1     -52.889  63.300   7.287  0.00  0.00    -0.468 OA
ENDBRANCH   1  23
BRANCH   6  24
ATOM     24  O3  UNL     1     -53.515  60.782   6.416  0.00  0.00    -0.472 OA
BRANCH  24  25
ATOM     25  C20 UNL     1     -53.965  60.850   5.060  0.00  0.00    +0.206 C 
BRANCH  25  26
ATOM     26  C21 UNL     1     -53.015  61.702   4.206  0.00  0.00    +0.051 C 
BRANCH  26  27
ATOM     27  C22 UNL     1     -53.798  62.544   3.194  0.00  0.00    +0.051 C 
BRANCH  27  28
ATOM     28  C23 UNL     1     -52.863  63.164   2.150  0.00  0.00    +0.206 C 
BRANCH  28  29
ATOM     29  O4  UNL     1     -52.470  64.478   2.549  0.00  0.00    -0.475 OA
BRANCH  29  30
ATOM     30  C24 UNL     1     -51.234  64.815   3.126  0.00  0.00    +0.139 A 
ATOM     31  C25 UNL     1     -50.718  64.159   4.260  0.00  0.00    +0.037 A 
ATOM     32  C26 UNL     1     -49.482  64.536   4.795  0.00  0.00    +0.006 A 
ATOM     33  C27 UNL     1     -48.734  65.570   4.205  0.00  0.00    +0.040 A 
ATOM     34  C29 UNL     1     -49.250  66.218   3.070  0.00  0.00    +0.006 A 
ATOM     35  C30 UNL     1     -50.488  65.841   2.538  0.00  0.00    +0.037 A 
BRANCH  33  36
ATOM     36  C28 UNL     1     -47.422  65.968   4.772  0.00  0.00    +0.208 A 
ATOM     37  N3  UNL     1     -46.593  66.897   4.245  0.00  0.00    -0.106 NA
ATOM     38  N4  UNL     1     -45.542  66.936   5.047  0.00  0.00    -0.021 NA
ATOM     39  N5  UNL     1     -45.707  66.073   6.035  0.00  0.00    -0.021 NA
ATOM     40  N6  UNL     1     -46.867  65.454   5.892  0.00  0.00    -0.106 NA
ENDBRANCH  33  36
ENDBRANCH  29  30
ENDBRANCH  28  29
ENDBRANCH  27  28
ENDBRANCH  26  27
ENDBRANCH  25  26
ENDBRANCH  24  25
ENDBRANCH   6  24
TORSDOF 11
ENDMDL
MODEL 9
REMARK VINA RESULT:      -6.2      2.772      9.287
REMARK  Name = ./data/4wxx_site2_bc02/pdb/l0c0.pdb
REMARK  11 active torsions:
REMARK  status: ('A' for Active; 'I' for Inactive)
REMARK    1  A    between atoms: O1_2  and  C2_3
REMARK    2  A    between atoms: C5_6  and  C6_7
REMARK    3  A    between atoms: N2_9  and  C7_10
REMARK    4  A    between atoms: C19_23  and  O3_24
REMARK    5  A    between atoms: O3_24  and  C20_25
REMARK    6  A    between atoms: C20_25  and  C21_26
REMARK    7  A    between atoms: C21_26  and  C22_27
REMARK    8  A    between atoms: C22_27  and  C23_28
REMARK    9  A    between atoms: C23_28  and  O4_29
REMARK   10  A    between atoms: O4_29  and  C24_30
REMARK   11  A    between atoms: C27_33  and  C28_34
REMARK                            x       y       z     vdW  Elec       q    Type
REMARK                         _______ _______ _______ _____ _____    ______ ____
ROOT
ATOM      1  C2  UNL     1     -52.641  61.161   7.755  0.00  0.00    +0.172 A 
ATOM      2  C3  UNL     1     -53.420  62.015   6.952  0.00  0.00    +0.040 A 
ATOM      3  C4  UNL     1     -52.816  62.870   6.027  0.00  0.00    +0.005 A 
ATOM      4  C5  UNL     1     -51.419  62.897   5.885  0.00  0.00    +0.019 A 
ATOM      5  C18 UNL     1     -50.645  62.060   6.710  0.00  0.00    +0.041 A 
ATOM      6  C19 UNL     1     -51.246  61.177   7.627  0.00  0.00    +0.172 A 
ENDROOT
BRANCH   4   7
ATOM      7  C6  UNL     1     -50.726  63.755   4.879  0.00  0.00    +0.086 C 
ATOM      8  N1  UNL     1     -51.335  64.129   3.798  0.00  0.00    -0.171 NA
ATOM      9  N2  UNL     1     -50.507  64.949   3.035  0.00  0.00    -0.222 N 
ATOM     10  C14 UNL     1     -49.366  65.095   3.623  0.00  0.00    +0.257 C 
ATOM     11  O2  UNL     1     -48.326  65.860   3.097  0.00  0.00    -0.270 OA
ATOM     12  C15 UNL     1     -49.326  64.350   4.930  0.00  0.00    +0.110 C 
ATOM     13  C16 UNL     1     -48.225  63.279   4.888  0.00  0.00    +0.015 C 
ATOM     14  C17 UNL     1     -49.147  65.350   6.087  0.00  0.00    +0.015 C 
BRANCH   9  15
ATOM     15  C7  UNL     1     -50.931  65.560   1.769  0.00  0.00    +0.108 C 
ATOM     16  C8  UNL     1     -51.786  64.548   0.974  0.00  0.00    +0.024 C 
ATOM     17  C9  UNL     1     -52.566  65.168  -0.198  0.00  0.00    +0.002 C 
ATOM     18  C10 UNL     1     -53.965  65.647   0.226  0.00  0.00    +0.000 C 
ATOM     19  C11 UNL     1     -53.955  66.947   1.040  0.00  0.00    +0.000 C 
ATOM     20  C12 UNL     1     -53.122  66.862   2.328  0.00  0.00    +0.002 C 
ATOM     21  C13 UNL     1     -51.608  66.925   2.049  0.00  0.00    +0.024 C 
ENDBRANCH   9  15
ENDBRANCH   4   7
BRANCH   1  23
ATOM     22  C1  UNL     1     -53.686  60.676   9.978  0.00  0.00    +0.253 C 
ATOM     23  O1  UNL     1     -53.216  60.286   8.691  0.00  0.00    -0.468 OA
ENDBRANCH   1  23
BRANCH   6  24
ATOM     24  O3  UNL     1     -50.491  60.298   8.426  0.00  0.00    -0.472 OA
BRANCH  24  25
ATOM     25  C20 UNL     1     -49.125  60.490   8.804  0.00  0.00    +0.206 C 
BRANCH  25  26
ATOM     26  C21 UNL     1     -48.421  59.143   9.025  0.00  0.00    +0.051 C 
BRANCH  26  27
ATOM     27  C22 UNL     1     -47.749  58.660   7.736  0.00  0.00    +0.051 C 
BRANCH  27  28
ATOM     28  C23 UNL     1     -48.168  59.520   6.539  0.00  0.00    +0.206 C 
BRANCH  28  29
ATOM     29  O4  UNL     1     -48.495  58.693   5.421  0.00  0.00    -0.475 OA
BRANCH  29  30
ATOM     30  C24 UNL     1     -49.138  57.446   5.495  0.00  0.00    +0.139 A 
ATOM     31  C25 UNL     1     -48.444  56.224   5.402  0.00  0.00    +0.037 A 
ATOM     32  C26 UNL     1     -49.135  55.011   5.481  0.00  0.00    +0.006 A 
ATOM     33  C27 UNL     1     -50.529  54.992   5.660  0.00  0.00    +0.040 A 
ATOM     34  C29 UNL     1     -51.216  56.214   5.758  0.00  0.00    +0.006 A 
ATOM     35  C30 UNL     1     -50.524  57.427   5.676  0.00  0.00    +0.037 A 
BRANCH  33  36
ATOM     36  C28 UNL     1     -51.260  53.704   5.745  0.00  0.00    +0.208 A 
ATOM     37  N3  UNL     1     -51.683  53.120   6.889  0.00  0.00    -0.106 NA
ATOM     38  N4  UNL     1     -52.275  51.996   6.521  0.00  0.00    -0.021 NA
ATOM     39  N5  UNL     1     -52.228  51.883   5.204  0.00  0.00    -0.021 NA
ATOM     40  N6  UNL     1     -51.602  52.929   4.693  0.00  0.00    -0.106 NA
ENDBRANCH  33  36
ENDBRANCH  29  30
ENDBRANCH  28  29
ENDBRANCH  27  28
ENDBRANCH  26  27
ENDBRANCH  25  26
ENDBRANCH  24  25
ENDBRANCH   6  24
TORSDOF 11
ENDMDL
