REMARK  Name = ./data/4wxx_site_bc02/pdb/l0c0.pdb
REMARK  11 active torsions:
REMARK  status: ('A' for Active; 'I' for Inactive)
REMARK    1  A    between atoms: O1_2  and  C2_3
REMARK    2  A    between atoms: C5_6  and  C6_7
REMARK    3  A    between atoms: N2_9  and  C7_10
REMARK    4  A    between atoms: C19_23  and  O3_24
REMARK    5  A    between atoms: O3_24  and  C20_25
REMARK    6  A    between atoms: C20_25  and  C21_26
REMARK    7  A    between atoms: C21_26  and  C22_27
REMARK    8  A    between atoms: C22_27  and  C23_28
REMARK    9  A    between atoms: C23_28  and  O4_29
REMARK   10  A    between atoms: O4_29  and  C24_30
REMARK   11  A    between atoms: C27_33  and  C28_34
REMARK                            x       y       z     vdW  Elec       q    Type
REMARK                         _______ _______ _______ _____ _____    ______ ____
ROOT
ATOM      1  C2  UNL     1      -0.954  -0.475  -5.421  0.00  0.00    +0.172 A 
ATOM      2  C3  UNL     1      -1.105   0.769  -6.061  0.00  0.00    +0.040 A 
ATOM      3  C4  UNL     1      -1.260   1.940  -5.315  0.00  0.00    +0.005 A 
ATOM      4  C5  UNL     1      -1.271   1.897  -3.911  0.00  0.00    +0.019 A 
ATOM      5  C18 UNL     1      -1.145   0.646  -3.278  0.00  0.00    +0.041 A 
ATOM      6  C19 UNL     1      -0.964  -0.536  -4.021  0.00  0.00    +0.172 A 
ENDROOT
BRANCH   4   7
ATOM      7  C6  UNL     1      -1.383   3.122  -3.066  0.00  0.00    +0.086 C 
ATOM      8  N1  UNL     1      -1.336   3.040  -1.774  0.00  0.00    -0.171 NA
ATOM      9  N2  UNL     1      -1.422   4.308  -1.205  0.00  0.00    -0.222 N 
ATOM     10  C14 UNL     1      -1.530   5.202  -2.131  0.00  0.00    +0.257 C 
ATOM     11  O2  UNL     1      -1.640   6.567  -1.869  0.00  0.00    -0.270 OA
ATOM     12  C15 UNL     1      -1.509   4.576  -3.499  0.00  0.00    +0.110 C 
ATOM     13  C16 UNL     1      -2.831   4.864  -4.227  0.00  0.00    +0.015 C 
ATOM     14  C17 UNL     1      -0.276   5.074  -4.274  0.00  0.00    +0.015 C 
BRANCH   9  15
ATOM     15  C7  UNL     1      -1.360   4.542   0.244  0.00  0.00    +0.108 C 
ATOM     16  C8  UNL     1      -2.637   3.980   0.907  0.00  0.00    +0.024 C 
ATOM     17  C9  UNL     1      -2.547   3.856   2.438  0.00  0.00    +0.002 C 
ATOM     18  C10 UNL     1      -2.008   2.485   2.878  0.00  0.00    +0.000 C 
ATOM     19  C11 UNL     1      -0.497   2.318   2.674  0.00  0.00    +0.000 C 
ATOM     20  C12 UNL     1      -0.046   2.510   1.218  0.00  0.00    +0.002 C 
ATOM     21  C13 UNL     1      -0.024   3.994   0.805  0.00  0.00    +0.024 C 
ENDBRANCH   9  15
ENDBRANCH   4   7
BRANCH   1  23
ATOM     22  C1  UNL     1      -0.745  -1.757  -7.561  0.00  0.00    +0.253 C 
ATOM     23  O1  UNL     1      -0.792  -1.670  -6.140  0.00  0.00    -0.468 OA
ENDBRANCH   1  23
BRANCH   6  24
ATOM     24  O3  UNL     1      -0.789  -1.789  -3.405  0.00  0.00    -0.472 OA
BRANCH  24  25
ATOM     25  C20 UNL     1      -0.730  -2.017  -1.995  0.00  0.00    +0.206 C 
BRANCH  25  26
ATOM     26  C21 UNL     1       0.614  -1.551  -1.417  0.00  0.00    +0.051 C 
BRANCH  26  27
ATOM     27  C22 UNL     1       0.610  -1.639   0.113  0.00  0.00    +0.051 C 
BRANCH  27  28
ATOM     28  C23 UNL     1       1.932  -1.133   0.699  0.00  0.00    +0.206 C 
BRANCH  28  29
ATOM     29  O4  UNL     1       1.922  -1.244   2.123  0.00  0.00    -0.475 OA
BRANCH  29  30
ATOM     30  C24 UNL     1       2.064  -2.442   2.844  0.00  0.00    +0.139 A 
ATOM     31  C25 UNL     1       2.378  -3.669   2.229  0.00  0.00    +0.037 A 
ATOM     32  C26 UNL     1       2.506  -4.832   2.995  0.00  0.00    +0.006 A 
ATOM     33  C27 UNL     1       2.329  -4.793   4.389  0.00  0.00    +0.040 A 
ATOM     34  C29 UNL     1       2.021  -3.565   4.999  0.00  0.00    +0.006 A 
ATOM     35  C30 UNL     1       1.891  -2.403   4.231  0.00  0.00    +0.037 A 
BRANCH  33  36
ATOM     36  C28 UNL     1       2.467  -6.027   5.201  0.00  0.00    +0.208 A 
ATOM     37  N3  UNL     1       2.671  -6.064   6.537  0.00  0.00    -0.106 NA
ATOM     38  N4  UNL     1       2.743  -7.347   6.853  0.00  0.00    -0.021 NA
ATOM     39  N5  UNL     1       2.587  -8.080   5.764  0.00  0.00    -0.021 NA
ATOM     40  N6  UNL     1       2.414  -7.288   4.719  0.00  0.00    -0.106 NA
ENDBRANCH  33  36
ENDBRANCH  29  30
ENDBRANCH  28  29
ENDBRANCH  27  28
ENDBRANCH  26  27
ENDBRANCH  25  26
ENDBRANCH  24  25
ENDBRANCH   6  24
TORSDOF 11
