REMARK  Name = ./data/4wxx_site_bc02/pdb/l0c1.pdb
REMARK  11 active torsions:
REMARK  status: ('A' for Active; 'I' for Inactive)
REMARK    1  A    between atoms: O1_2  and  C2_3
REMARK    2  A    between atoms: C5_6  and  C6_7
REMARK    3  A    between atoms: N2_9  and  C7_10
REMARK    4  A    between atoms: C19_23  and  O3_24
REMARK    5  A    between atoms: O3_24  and  C20_25
REMARK    6  A    between atoms: C20_25  and  C21_26
REMARK    7  A    between atoms: C21_26  and  C22_27
REMARK    8  A    between atoms: C22_27  and  C23_28
REMARK    9  A    between atoms: C23_28  and  O4_29
REMARK   10  A    between atoms: O4_29  and  C24_30
REMARK   11  A    between atoms: C27_33  and  C28_34
REMARK                            x       y       z     vdW  Elec       q    Type
REMARK                         _______ _______ _______ _____ _____    ______ ____
ROOT
ATOM      1  C2  UNL     1      -0.594   0.304  -5.568  0.00  0.00    +0.172 A 
ATOM      2  C3  UNL     1      -1.068   1.610  -5.363  0.00  0.00    +0.040 A 
ATOM      3  C4  UNL     1      -1.065   2.172  -4.084  0.00  0.00    +0.005 A 
ATOM      4  C5  UNL     1      -0.596   1.442  -2.978  0.00  0.00    +0.019 A 
ATOM      5  C18 UNL     1      -0.079   0.155  -3.197  0.00  0.00    +0.041 A 
ATOM      6  C19 UNL     1      -0.088  -0.425  -4.481  0.00  0.00    +0.172 A 
ENDROOT
BRANCH   4   7
ATOM      7  C6  UNL     1      -0.711   2.017  -1.609  0.00  0.00    +0.086 C 
ATOM      8  N1  UNL     1      -0.984   3.271  -1.428  0.00  0.00    -0.171 NA
ATOM      9  N2  UNL     1      -1.254   3.508  -0.080  0.00  0.00    -0.222 N 
ATOM     10  C14 UNL     1      -1.157   2.407   0.592  0.00  0.00    +0.257 C 
ATOM     11  O2  UNL     1      -1.391   2.329   1.963  0.00  0.00    -0.270 OA
ATOM     12  C15 UNL     1      -0.759   1.257  -0.287  0.00  0.00    +0.110 C 
ATOM     13  C16 UNL     1       0.617   0.730   0.159  0.00  0.00    +0.015 C 
ATOM     14  C17 UNL     1      -1.849   0.168  -0.276  0.00  0.00    +0.015 C 
BRANCH   9  15
ATOM     15  C7  UNL     1      -1.598   4.822   0.485  0.00  0.00    +0.108 C 
ATOM     16  C8  UNL     1      -2.118   5.792  -0.613  0.00  0.00    +0.024 C 
ATOM     17  C9  UNL     1      -3.133   6.809  -0.065  0.00  0.00    +0.002 C 
ATOM     18  C10 UNL     1      -2.503   7.950   0.740  0.00  0.00    +0.000 C 
ATOM     19  C11 UNL     1      -1.708   7.466   1.964  0.00  0.00    +0.000 C 
ATOM     20  C12 UNL     1      -0.349   6.875   1.561  0.00  0.00    +0.002 C 
ATOM     21  C13 UNL     1      -0.384   5.361   1.291  0.00  0.00    +0.024 C 
ENDBRANCH   9  15
ENDBRANCH   4   7
BRANCH   1  23
ATOM     22  C1  UNL     1      -1.148   0.288  -8.009  0.00  0.00    +0.253 C 
ATOM     23  O1  UNL     1      -0.609  -0.307  -6.834  0.00  0.00    -0.468 OA
ENDBRANCH   1  23
BRANCH   6  24
ATOM     24  O3  UNL     1       0.392  -1.729  -4.723  0.00  0.00    -0.472 OA
BRANCH  24  25
ATOM     25  C20 UNL     1       0.938  -2.607  -3.736  0.00  0.00    +0.206 C 
BRANCH  25  26
ATOM     26  C21 UNL     1      -0.178  -3.230  -2.885  0.00  0.00    +0.051 C 
BRANCH  26  27
ATOM     27  C22 UNL     1       0.413  -4.068  -1.744  0.00  0.00    +0.051 C 
BRANCH  27  28
ATOM     28  C23 UNL     1      -0.684  -4.614  -0.826  0.00  0.00    +0.206 C 
BRANCH  28  29
ATOM     29  O4  UNL     1      -0.128  -5.514   0.132  0.00  0.00    -0.475 OA
BRANCH  29  30
ATOM     30  C24 UNL     1       0.582  -5.144   1.287  0.00  0.00    +0.139 A 
ATOM     31  C25 UNL     1       0.727  -3.808   1.705  0.00  0.00    +0.037 A 
ATOM     32  C26 UNL     1       1.425  -3.506   2.880  0.00  0.00    +0.006 A 
ATOM     33  C27 UNL     1       2.000  -4.529   3.659  0.00  0.00    +0.040 A 
ATOM     34  C29 UNL     1       1.863  -5.860   3.224  0.00  0.00    +0.006 A 
ATOM     35  C30 UNL     1       1.159  -6.161   2.054  0.00  0.00    +0.037 A 
BRANCH  33  36
ATOM     36  C28 UNL     1       2.728  -4.212   4.922  0.00  0.00    +0.208 A 
ATOM     37  N3  UNL     1       3.046  -5.104   5.884  0.00  0.00    -0.106 NA
ATOM     38  N4  UNL     1       3.675  -4.415   6.822  0.00  0.00    -0.021 NA
ATOM     39  N5  UNL     1       3.751  -3.144   6.463  0.00  0.00    -0.021 NA
ATOM     40  N6  UNL     1       3.168  -2.986   5.286  0.00  0.00    -0.106 NA
ENDBRANCH  33  36
ENDBRANCH  29  30
ENDBRANCH  28  29
ENDBRANCH  27  28
ENDBRANCH  26  27
ENDBRANCH  25  26
ENDBRANCH  24  25
ENDBRANCH   6  24
TORSDOF 11
