MODEL 1
REMARK VINA RESULT:      -5.1      0.000      0.000
REMARK  Name = ./data/4u7t_site_bc02/pdb/l1c0.pdb
REMARK  11 active torsions:
REMARK  status: ('A' for Active; 'I' for Inactive)
REMARK    1  A    between atoms: O1_2  and  C2_3
REMARK    2  A    between atoms: C5_6  and  C6_7
REMARK    3  A    between atoms: N2_9  and  C7_10
REMARK    4  A    between atoms: C22_26  and  O3_27
REMARK    5  A    between atoms: O3_27  and  C23_28
REMARK    6  A    between atoms: C23_28  and  C24_29
REMARK    7  A    between atoms: C24_29  and  C25_30
REMARK    8  A    between atoms: C25_30  and  C26_31
REMARK    9  A    between atoms: C26_31  and  O4_32
REMARK   10  A    between atoms: O4_32  and  C27_33
REMARK   11  A    between atoms: C30_36  and  C31_37
REMARK                            x       y       z     vdW  Elec       q    Type
REMARK                         _______ _______ _______ _____ _____    ______ ____
ROOT
ATOM      1  C2  UNL     1      -1.450  51.474   1.704  0.00  0.00    +0.172 A 
ATOM      2  C3  UNL     1      -2.270  51.488   0.564  0.00  0.00    +0.040 A 
ATOM      3  C4  UNL     1      -1.707  51.486  -0.712  0.00  0.00    +0.005 A 
ATOM      4  C5  UNL     1      -0.312  51.462  -0.886  0.00  0.00    +0.018 A 
ATOM      5  C21 UNL     1       0.506  51.434   0.261  0.00  0.00    +0.041 A 
ATOM      6  C22 UNL     1      -0.057  51.461   1.555  0.00  0.00    +0.172 A 
ENDROOT
BRANCH   4   7
ATOM      7  C6  UNL     1       0.265  51.461  -2.266  0.00  0.00    +0.079 C 
ATOM      8  N1  UNL     1       1.523  51.166  -2.416  0.00  0.00    -0.172 NA
ATOM      9  N2  UNL     1       2.186  51.130  -3.659  0.00  0.00    -0.222 N 
ATOM     10  C14 UNL     1       1.507  51.132  -4.785  0.00  0.00    +0.253 C 
ATOM     11  O2  UNL     1       2.184  50.994  -6.001  0.00  0.00    -0.271 OA
ATOM     12  C15 UNL     1      -0.015  51.196  -4.761  0.00  0.00    +0.091 C 
ATOM     13  C16 UNL     1      -0.614  51.913  -5.988  0.00  0.00    +0.035 C 
ATOM     14  C17 UNL     1      -0.141  53.334  -6.019  0.00  0.00    -0.030 C 
ATOM     15  C18 UNL     1      -0.083  54.040  -4.882  0.00  0.00    -0.030 C 
ATOM     16  C19 UNL     1      -0.561  53.466  -3.568  0.00  0.00    +0.032 C 
ATOM     17  C20 UNL     1      -0.531  51.903  -3.476  0.00  0.00    +0.056 C 
BRANCH   9  18
ATOM     18  C7  UNL     1       3.659  51.012  -3.617  0.00  0.00    +0.108 C 
ATOM     19  C8  UNL     1       4.337  52.229  -4.302  0.00  0.00    +0.024 C 
ATOM     20  C9  UNL     1       5.674  51.864  -4.966  0.00  0.00    +0.002 C 
ATOM     21  C10 UNL     1       6.834  51.730  -3.974  0.00  0.00    +0.000 C 
ATOM     22  C11 UNL     1       6.610  50.646  -2.912  0.00  0.00    +0.000 C 
ATOM     23  C12 UNL     1       5.592  51.081  -1.844  0.00  0.00    +0.002 C 
ATOM     24  C13 UNL     1       4.140  50.701  -2.174  0.00  0.00    +0.024 C 
ENDBRANCH   9  18
ENDBRANCH   4   7
BRANCH   1  26
ATOM     25  C1  UNL     1      -2.482  50.319   3.668  0.00  0.00    +0.253 C 
ATOM     26  O1  UNL     1      -1.981  51.474   3.004  0.00  0.00    -0.468 OA
ENDBRANCH   1  26
BRANCH   6  27
ATOM     27  O3  UNL     1       0.731  51.473   2.719  0.00  0.00    -0.472 OA
BRANCH  27  28
ATOM     28  C23 UNL     1       1.926  52.230   2.910  0.00  0.00    +0.206 C 
BRANCH  28  29
ATOM     29  C24 UNL     1       3.051  51.336   3.438  0.00  0.00    +0.051 C 
BRANCH  29  30
ATOM     30  C25 UNL     1       3.108  51.359   4.970  0.00  0.00    +0.051 C 
BRANCH  30  31
ATOM     31  C26 UNL     1       2.531  52.658   5.531  0.00  0.00    +0.206 C 
BRANCH  31  32
ATOM     32  O4  UNL     1       1.506  52.352   6.475  0.00  0.00    -0.475 OA
BRANCH  32  33
ATOM     33  C27 UNL     1       0.146  52.641   6.301  0.00  0.00    +0.139 A 
ATOM     34  C28 UNL     1      -0.200  53.684   5.438  0.00  0.00    +0.037 A 
ATOM     35  C29 UNL     1      -1.537  54.039   5.252  0.00  0.00    +0.006 A 
ATOM     36  C30 UNL     1      -2.564  53.340   5.915  0.00  0.00    +0.040 A 
ATOM     37  C32 UNL     1      -2.214  52.272   6.764  0.00  0.00    +0.006 A 
ATOM     38  C33 UNL     1      -0.872  51.929   6.961  0.00  0.00    +0.037 A 
BRANCH  36  39
ATOM     39  C31 UNL     1      -3.986  53.727   5.727  0.00  0.00    +0.208 A 
ATOM     40  N3  UNL     1      -4.929  52.971   5.123  0.00  0.00    -0.106 NA
ATOM     41  N4  UNL     1      -6.047  53.672   5.189  0.00  0.00    -0.021 NA
ATOM     42  N5  UNL     1      -5.816  54.819   5.804  0.00  0.00    -0.021 NA
ATOM     43  N6  UNL     1      -4.544  54.882   6.153  0.00  0.00    -0.106 NA
ENDBRANCH  36  39
ENDBRANCH  32  33
ENDBRANCH  31  32
ENDBRANCH  30  31
ENDBRANCH  29  30
ENDBRANCH  28  29
ENDBRANCH  27  28
ENDBRANCH   6  27
TORSDOF 11
ENDMDL
MODEL 2
REMARK VINA RESULT:      -4.9      1.757      2.506
REMARK  Name = ./data/4u7t_site_bc02/pdb/l1c0.pdb
REMARK  11 active torsions:
REMARK  status: ('A' for Active; 'I' for Inactive)
REMARK    1  A    between atoms: O1_2  and  C2_3
REMARK    2  A    between atoms: C5_6  and  C6_7
REMARK    3  A    between atoms: N2_9  and  C7_10
REMARK    4  A    between atoms: C22_26  and  O3_27
REMARK    5  A    between atoms: O3_27  and  C23_28
REMARK    6  A    between atoms: C23_28  and  C24_29
REMARK    7  A    between atoms: C24_29  and  C25_30
REMARK    8  A    between atoms: C25_30  and  C26_31
REMARK    9  A    between atoms: C26_31  and  O4_32
REMARK   10  A    between atoms: O4_32  and  C27_33
REMARK   11  A    between atoms: C30_36  and  C31_37
REMARK                            x       y       z     vdW  Elec       q    Type
REMARK                         _______ _______ _______ _____ _____    ______ ____
ROOT
ATOM      1  C2  UNL     1      -0.712  50.942  -0.837  0.00  0.00    +0.172 A 
ATOM      2  C3  UNL     1      -1.436  50.679  -2.011  0.00  0.00    +0.040 A 
ATOM      3  C4  UNL     1      -0.922  51.043  -3.255  0.00  0.00    +0.005 A 
ATOM      4  C5  UNL     1       0.331  51.671  -3.364  0.00  0.00    +0.018 A 
ATOM      5  C21 UNL     1       1.059  51.921  -2.185  0.00  0.00    +0.041 A 
ATOM      6  C22 UNL     1       0.535  51.579  -0.921  0.00  0.00    +0.172 A 
ENDROOT
BRANCH   4   7
ATOM      7  C6  UNL     1       0.857  52.051  -4.712  0.00  0.00    +0.079 C 
ATOM      8  N1  UNL     1       2.137  52.235  -4.852  0.00  0.00    -0.172 NA
ATOM      9  N2  UNL     1       2.758  52.594  -6.066  0.00  0.00    -0.222 N 
ATOM     10  C14 UNL     1       2.109  52.506  -7.206  0.00  0.00    +0.253 C 
ATOM     11  O2  UNL     1       2.779  52.772  -8.405  0.00  0.00    -0.271 OA
ATOM     12  C15 UNL     1       0.661  52.031  -7.229  0.00  0.00    +0.091 C 
ATOM     13  C16 UNL     1      -0.163  52.648  -8.377  0.00  0.00    +0.035 C 
ATOM     14  C17 UNL     1      -0.218  54.136  -8.212  0.00  0.00    -0.030 C 
ATOM     15  C18 UNL     1      -0.399  54.664  -6.995  0.00  0.00    -0.030 C 
ATOM     16  C19 UNL     1      -0.633  53.793  -5.781  0.00  0.00    +0.032 C 
ATOM     17  C20 UNL     1      -0.056  52.341  -5.884  0.00  0.00    +0.056 C 
BRANCH   9  18
ATOM     18  C7  UNL     1       4.179  52.992  -5.986  0.00  0.00    +0.108 C 
ATOM     19  C8  UNL     1       4.318  54.513  -5.706  0.00  0.00    +0.024 C 
ATOM     20  C9  UNL     1       5.581  55.117  -6.341  0.00  0.00    +0.002 C 
ATOM     21  C10 UNL     1       6.863  54.818  -5.557  0.00  0.00    +0.000 C 
ATOM     22  C11 UNL     1       7.165  53.319  -5.424  0.00  0.00    +0.000 C 
ATOM     23  C12 UNL     1       6.242  52.630  -4.405  0.00  0.00    +0.002 C 
ATOM     24  C13 UNL     1       4.953  52.058  -5.017  0.00  0.00    +0.024 C 
ENDBRANCH   9  18
ENDBRANCH   4   7
BRANCH   1  26
ATOM     25  C1  UNL     1      -2.475  50.962   0.937  0.00  0.00    +0.253 C 
ATOM     26  O1  UNL     1      -1.196  50.590   0.433  0.00  0.00    -0.468 OA
ENDBRANCH   1  26
BRANCH   6  27
ATOM     27  O3  UNL     1       1.218  51.849   0.277  0.00  0.00    -0.472 OA
BRANCH  27  28
ATOM     28  C23 UNL     1       2.396  51.185   0.734  0.00  0.00    +0.206 C 
BRANCH  28  29
ATOM     29  C24 UNL     1       2.770  51.658   2.141  0.00  0.00    +0.051 C 
BRANCH  29  30
ATOM     30  C25 UNL     1       2.707  50.506   3.151  0.00  0.00    +0.051 C 
BRANCH  30  31
ATOM     31  C26 UNL     1       2.537  51.025   4.579  0.00  0.00    +0.206 C 
BRANCH  31  32
ATOM     32  O4  UNL     1       2.011  52.351   4.541  0.00  0.00    -0.475 OA
BRANCH  32  33
ATOM     33  C27 UNL     1       0.686  52.694   4.842  0.00  0.00    +0.139 A 
ATOM     34  C28 UNL     1      -0.331  52.145   4.058  0.00  0.00    +0.037 A 
ATOM     35  C29 UNL     1      -1.667  52.477   4.289  0.00  0.00    +0.006 A 
ATOM     36  C30 UNL     1      -2.016  53.357   5.331  0.00  0.00    +0.040 A 
ATOM     37  C32 UNL     1      -0.991  53.889   6.138  0.00  0.00    +0.006 A 
ATOM     38  C33 UNL     1       0.348  53.566   5.892  0.00  0.00    +0.037 A 
BRANCH  36  39
ATOM     39  C31 UNL     1      -3.437  53.721   5.569  0.00  0.00    +0.208 A 
ATOM     40  N3  UNL     1      -3.864  54.834   6.204  0.00  0.00    -0.106 NA
ATOM     41  N4  UNL     1      -5.184  54.779   6.177  0.00  0.00    -0.021 NA
ATOM     42  N5  UNL     1      -5.569  53.678   5.555  0.00  0.00    -0.021 NA
ATOM     43  N6  UNL     1      -4.507  53.000   5.163  0.00  0.00    -0.106 NA
ENDBRANCH  36  39
ENDBRANCH  32  33
ENDBRANCH  31  32
ENDBRANCH  30  31
ENDBRANCH  29  30
ENDBRANCH  28  29
ENDBRANCH  27  28
ENDBRANCH   6  27
TORSDOF 11
ENDMDL
MODEL 3
REMARK VINA RESULT:      -4.4      4.028      4.894
REMARK  Name = ./data/4u7t_site_bc02/pdb/l1c0.pdb
REMARK  11 active torsions:
REMARK  status: ('A' for Active; 'I' for Inactive)
REMARK    1  A    between atoms: O1_2  and  C2_3
REMARK    2  A    between atoms: C5_6  and  C6_7
REMARK    3  A    between atoms: N2_9  and  C7_10
REMARK    4  A    between atoms: C22_26  and  O3_27
REMARK    5  A    between atoms: O3_27  and  C23_28
REMARK    6  A    between atoms: C23_28  and  C24_29
REMARK    7  A    between atoms: C24_29  and  C25_30
REMARK    8  A    between atoms: C25_30  and  C26_31
REMARK    9  A    between atoms: C26_31  and  O4_32
REMARK   10  A    between atoms: O4_32  and  C27_33
REMARK   11  A    between atoms: C30_36  and  C31_37
REMARK                            x       y       z     vdW  Elec       q    Type
REMARK                         _______ _______ _______ _____ _____    ______ ____
ROOT
ATOM      1  C2  UNL     1      -1.904  50.894  -1.074  0.00  0.00    +0.172 A 
ATOM      2  C3  UNL     1      -2.410  50.572  -2.344  0.00  0.00    +0.040 A 
ATOM      3  C4  UNL     1      -1.668  50.851  -3.491  0.00  0.00    +0.005 A 
ATOM      4  C5  UNL     1      -0.400  51.451  -3.404  0.00  0.00    +0.018 A 
ATOM      5  C21 UNL     1       0.109  51.759  -2.127  0.00  0.00    +0.041 A 
ATOM      6  C22 UNL     1      -0.647  51.503  -0.964  0.00  0.00    +0.172 A 
ENDROOT
BRANCH   4   7
ATOM      7  C6  UNL     1       0.374  51.739  -4.652  0.00  0.00    +0.079 C 
ATOM      8  N1  UNL     1       1.672  51.696  -4.604  0.00  0.00    -0.172 NA
ATOM      9  N2  UNL     1       2.515  51.947  -5.707  0.00  0.00    -0.222 N 
ATOM     10  C14 UNL     1       2.033  51.980  -6.929  0.00  0.00    +0.253 C 
ATOM     11  O2  UNL     1       2.904  52.131  -8.013  0.00  0.00    -0.271 OA
ATOM     12  C15 UNL     1       0.543  51.768  -7.171  0.00  0.00    +0.091 C 
ATOM     13  C16 UNL     1       0.012  52.525  -8.405  0.00  0.00    +0.035 C 
ATOM     14  C17 UNL     1       0.193  53.999  -8.204  0.00  0.00    -0.030 C 
ATOM     15  C18 UNL     1      -0.068  54.544  -7.009  0.00  0.00    -0.030 C 
ATOM     16  C19 UNL     1      -0.622  53.722  -5.868  0.00  0.00    +0.032 C 
ATOM     17  C20 UNL     1      -0.296  52.192  -5.932  0.00  0.00    +0.056 C 
BRANCH   9  18
ATOM     18  C7  UNL     1       3.957  52.089  -5.415  0.00  0.00    +0.108 C 
ATOM     19  C8  UNL     1       4.337  53.577  -5.186  0.00  0.00    +0.024 C 
ATOM     20  C9  UNL     1       5.772  53.895  -5.633  0.00  0.00    +0.002 C 
ATOM     21  C10 UNL     1       6.841  53.431  -4.638  0.00  0.00    +0.000 C 
ATOM     22  C11 UNL     1       6.831  51.917  -4.389  0.00  0.00    +0.000 C 
ATOM     23  C12 UNL     1       5.651  51.483  -3.504  0.00  0.00    +0.002 C 
ATOM     24  C13 UNL     1       4.385  51.107  -4.290  0.00  0.00    +0.024 C 
ENDBRANCH   9  18
ENDBRANCH   4   7
BRANCH   1  26
ATOM     25  C1  UNL     1      -3.811  51.307   0.491  0.00  0.00    +0.253 C 
ATOM     26  O1  UNL     1      -2.621  50.628   0.104  0.00  0.00    -0.468 OA
ENDBRANCH   1  26
BRANCH   6  27
ATOM     27  O3  UNL     1      -0.186  51.834   0.322  0.00  0.00    -0.472 OA
BRANCH  27  28
ATOM     28  C23 UNL     1       0.910  51.219   1.000  0.00  0.00    +0.206 C 
BRANCH  28  29
ATOM     29  C24 UNL     1       1.327  52.050   2.216  0.00  0.00    +0.051 C 
BRANCH  29  30
ATOM     30  C25 UNL     1       0.740  51.475   3.511  0.00  0.00    +0.051 C 
BRANCH  30  31
ATOM     31  C26 UNL     1      -0.095  52.516   4.255  0.00  0.00    +0.206 C 
BRANCH  31  32
ATOM     32  O4  UNL     1       0.288  52.535   5.630  0.00  0.00    -0.475 OA
BRANCH  32  33
ATOM     33  C27 UNL     1       1.566  52.867   6.099  0.00  0.00    +0.139 A 
ATOM     34  C28 UNL     1       1.917  54.218   6.154  0.00  0.00    +0.037 A 
ATOM     35  C29 UNL     1       3.188  54.607   6.581  0.00  0.00    +0.006 A 
ATOM     36  C30 UNL     1       4.135  53.644   6.983  0.00  0.00    +0.040 A 
ATOM     37  C32 UNL     1       3.770  52.284   6.951  0.00  0.00    +0.006 A 
ATOM     38  C33 UNL     1       2.501  51.898   6.507  0.00  0.00    +0.037 A 
BRANCH  36  39
ATOM     39  C31 UNL     1       5.492  54.057   7.424  0.00  0.00    +0.208 A 
ATOM     40  N3  UNL     1       6.309  54.900   6.756  0.00  0.00    -0.106 NA
ATOM     41  N4  UNL     1       7.396  55.012   7.501  0.00  0.00    -0.021 NA
ATOM     42  N5  UNL     1       7.267  54.269   8.586  0.00  0.00    -0.021 NA
ATOM     43  N6  UNL     1       6.094  53.665   8.570  0.00  0.00    -0.106 NA
ENDBRANCH  36  39
ENDBRANCH  32  33
ENDBRANCH  31  32
ENDBRANCH  30  31
ENDBRANCH  29  30
ENDBRANCH  28  29
ENDBRANCH  27  28
ENDBRANCH   6  27
TORSDOF 11
ENDMDL
MODEL 4
REMARK VINA RESULT:      -4.3      3.765      4.668
REMARK  Name = ./data/4u7t_site_bc02/pdb/l1c0.pdb
REMARK  11 active torsions:
REMARK  status: ('A' for Active; 'I' for Inactive)
REMARK    1  A    between atoms: O1_2  and  C2_3
REMARK    2  A    between atoms: C5_6  and  C6_7
REMARK    3  A    between atoms: N2_9  and  C7_10
REMARK    4  A    between atoms: C22_26  and  O3_27
REMARK    5  A    between atoms: O3_27  and  C23_28
REMARK    6  A    between atoms: C23_28  and  C24_29
REMARK    7  A    between atoms: C24_29  and  C25_30
REMARK    8  A    between atoms: C25_30  and  C26_31
REMARK    9  A    between atoms: C26_31  and  O4_32
REMARK   10  A    between atoms: O4_32  and  C27_33
REMARK   11  A    between atoms: C30_36  and  C31_37
REMARK                            x       y       z     vdW  Elec       q    Type
REMARK                         _______ _______ _______ _____ _____    ______ ____
ROOT
ATOM      1  C2  UNL     1      -3.545  50.961   0.784  0.00  0.00    +0.172 A 
ATOM      2  C3  UNL     1      -3.994  51.022  -0.545  0.00  0.00    +0.040 A 
ATOM      3  C4  UNL     1      -3.083  51.133  -1.595  0.00  0.00    +0.005 A 
ATOM      4  C5  UNL     1      -1.699  51.178  -1.350  0.00  0.00    +0.018 A 
ATOM      5  C21 UNL     1      -1.253  51.103  -0.016  0.00  0.00    +0.041 A 
ATOM      6  C22 UNL     1      -2.170  51.017   1.053  0.00  0.00    +0.172 A 
ENDROOT
BRANCH   4   7
ATOM      7  C6  UNL     1      -0.744  51.298  -2.495  0.00  0.00    +0.079 C 
ATOM      8  N1  UNL     1       0.478  50.885  -2.333  0.00  0.00    -0.172 NA
ATOM      9  N2  UNL     1       1.472  50.942  -3.331  0.00  0.00    -0.222 N 
ATOM     10  C14 UNL     1       1.155  51.172  -4.586  0.00  0.00    +0.253 C 
ATOM     11  O2  UNL     1       2.148  51.124  -5.571  0.00  0.00    -0.271 OA
ATOM     12  C15 UNL     1      -0.299  51.405  -4.978  0.00  0.00    +0.091 C 
ATOM     13  C16 UNL     1      -0.460  52.344  -6.191  0.00  0.00    +0.035 C 
ATOM     14  C17 UNL     1       0.099  53.693  -5.858  0.00  0.00    -0.030 C 
ATOM     15  C18 UNL     1      -0.130  54.228  -4.652  0.00  0.00    -0.030 C 
ATOM     16  C19 UNL     1      -1.011  53.541  -3.635  0.00  0.00    +0.032 C 
ATOM     17  C20 UNL     1      -1.118  51.986  -3.791  0.00  0.00    +0.056 C 
BRANCH   9  18
ATOM     18  C7  UNL     1       2.857  50.653  -2.899  0.00  0.00    +0.108 C 
ATOM     19  C8  UNL     1       3.848  51.706  -3.463  0.00  0.00    +0.024 C 
ATOM     20  C9  UNL     1       5.244  51.118  -3.730  0.00  0.00    +0.002 C 
ATOM     21  C10 UNL     1       6.088  50.946  -2.463  0.00  0.00    +0.000 C 
ATOM     22  C11 UNL     1       5.456  50.008  -1.427  0.00  0.00    +0.000 C 
ATOM     23  C12 UNL     1       4.276  50.666  -0.692  0.00  0.00    +0.002 C 
ATOM     24  C13 UNL     1       2.913  50.432  -1.363  0.00  0.00    +0.024 C 
ENDBRANCH   9  18
ENDBRANCH   4   7
BRANCH   1  26
ATOM     25  C1  UNL     1      -5.808  51.212   1.819  0.00  0.00    +0.253 C 
ATOM     26  O1  UNL     1      -4.432  50.849   1.866  0.00  0.00    -0.468 OA
ENDBRANCH   1  26
BRANCH   6  27
ATOM     27  O3  UNL     1      -1.760  50.979   2.397  0.00  0.00    -0.472 OA
BRANCH  27  28
ATOM     28  C23 UNL     1      -0.410  51.001   2.858  0.00  0.00    +0.206 C 
BRANCH  28  29
ATOM     29  C24 UNL     1      -0.134  52.276   3.660  0.00  0.00    +0.051 C 
BRANCH  29  30
ATOM     30  C25 UNL     1      -1.081  52.394   4.860  0.00  0.00    +0.051 C 
BRANCH  30  31
ATOM     31  C26 UNL     1      -1.207  53.843   5.330  0.00  0.00    +0.206 C 
BRANCH  31  32
ATOM     32  O4  UNL     1      -0.538  53.994   6.581  0.00  0.00    -0.475 OA
BRANCH  32  33
ATOM     33  C27 UNL     1       0.851  54.085   6.739  0.00  0.00    +0.139 A 
ATOM     34  C28 UNL     1       1.522  52.999   7.307  0.00  0.00    +0.037 A 
ATOM     35  C29 UNL     1       2.901  53.045   7.520  0.00  0.00    +0.006 A 
ATOM     36  C30 UNL     1       3.645  54.182   7.148  0.00  0.00    +0.040 A 
ATOM     37  C32 UNL     1       2.971  55.266   6.552  0.00  0.00    +0.006 A 
ATOM     38  C33 UNL     1       1.587  55.221   6.355  0.00  0.00    +0.037 A 
BRANCH  36  39
ATOM     39  C31 UNL     1       5.111  54.237   7.387  0.00  0.00    +0.208 A 
ATOM     40  N3  UNL     1       5.778  53.526   8.322  0.00  0.00    -0.106 NA
ATOM     41  N4  UNL     1       7.051  53.852   8.180  0.00  0.00    -0.021 NA
ATOM     42  N5  UNL     1       7.176  54.733   7.203  0.00  0.00    -0.021 NA
ATOM     43  N6  UNL     1       5.988  54.990   6.687  0.00  0.00    -0.106 NA
ENDBRANCH  36  39
ENDBRANCH  32  33
ENDBRANCH  31  32
ENDBRANCH  30  31
ENDBRANCH  29  30
ENDBRANCH  28  29
ENDBRANCH  27  28
ENDBRANCH   6  27
TORSDOF 11
ENDMDL
MODEL 5
REMARK VINA RESULT:      -4.3      4.261      6.255
REMARK  Name = ./data/4u7t_site_bc02/pdb/l1c0.pdb
REMARK  11 active torsions:
REMARK  status: ('A' for Active; 'I' for Inactive)
REMARK    1  A    between atoms: O1_2  and  C2_3
REMARK    2  A    between atoms: C5_6  and  C6_7
REMARK    3  A    between atoms: N2_9  and  C7_10
REMARK    4  A    between atoms: C22_26  and  O3_27
REMARK    5  A    between atoms: O3_27  and  C23_28
REMARK    6  A    between atoms: C23_28  and  C24_29
REMARK    7  A    between atoms: C24_29  and  C25_30
REMARK    8  A    between atoms: C25_30  and  C26_31
REMARK    9  A    between atoms: C26_31  and  O4_32
REMARK   10  A    between atoms: O4_32  and  C27_33
REMARK   11  A    between atoms: C30_36  and  C31_37
REMARK                            x       y       z     vdW  Elec       q    Type
REMARK                         _______ _______ _______ _____ _____    ______ ____
ROOT
ATOM      1  C2  UNL     1      -6.120  51.458   4.228  0.00  0.00    +0.172 A 
ATOM      2  C3  UNL     1      -6.579  51.401   2.902  0.00  0.00    +0.040 A 
ATOM      3  C4  UNL     1      -5.680  51.229   1.850  0.00  0.00    +0.005 A 
ATOM      4  C5  UNL     1      -4.301  51.101   2.091  0.00  0.00    +0.018 A 
ATOM      5  C21 UNL     1      -3.847  51.145   3.424  0.00  0.00    +0.041 A 
ATOM      6  C22 UNL     1      -4.748  51.345   4.491  0.00  0.00    +0.172 A 
ENDROOT
BRANCH   4   7
ATOM      7  C6  UNL     1      -3.360  50.918   0.943  0.00  0.00    +0.079 C 
ATOM      8  N1  UNL     1      -2.090  50.786   1.193  0.00  0.00    -0.172 NA
ATOM      9  N2  UNL     1      -1.102  50.607   0.203  0.00  0.00    -0.222 N 
ATOM     10  C14 UNL     1      -1.432  50.294  -1.030  0.00  0.00    +0.253 C 
ATOM     11  O2  UNL     1      -0.430  50.024  -1.967  0.00  0.00    -0.271 OA
ATOM     12  C15 UNL     1      -2.899  50.139  -1.414  0.00  0.00    +0.091 C 
ATOM     13  C16 UNL     1      -3.186  50.512  -2.883  0.00  0.00    +0.035 C 
ATOM     14  C17 UNL     1      -2.849  51.954  -3.109  0.00  0.00    -0.030 C 
ATOM     15  C18 UNL     1      -3.176  52.867  -2.185  0.00  0.00    -0.030 C 
ATOM     16  C19 UNL     1      -3.955  52.493  -0.945  0.00  0.00    +0.032 C 
ATOM     17  C20 UNL     1      -3.816  50.999  -0.498  0.00  0.00    +0.056 C 
BRANCH   9  18
ATOM     18  C7  UNL     1       0.304  50.715   0.649  0.00  0.00    +0.108 C 
ATOM     19  C8  UNL     1       1.164  51.476  -0.396  0.00  0.00    +0.024 C 
ATOM     20  C9  UNL     1       2.623  50.991  -0.424  0.00  0.00    +0.002 C 
ATOM     21  C10 UNL     1       3.472  51.537   0.728  0.00  0.00    +0.000 C 
ATOM     22  C11 UNL     1       2.950  51.142   2.115  0.00  0.00    +0.000 C 
ATOM     23  C12 UNL     1       1.693  51.934   2.511  0.00  0.00    +0.002 C 
ATOM     24  C13 UNL     1       0.374  51.259   2.102  0.00  0.00    +0.024 C 
ENDBRANCH   9  18
ENDBRANCH   4   7
BRANCH   1  26
ATOM     25  C1  UNL     1      -7.520  52.885   5.732  0.00  0.00    +0.253 C 
ATOM     26  O1  UNL     1      -6.995  51.629   5.313  0.00  0.00    -0.468 OA
ENDBRANCH   1  26
BRANCH   6  27
ATOM     27  O3  UNL     1      -4.325  51.432   5.829  0.00  0.00    -0.472 OA
BRANCH  27  28
ATOM     28  C23 UNL     1      -3.041  51.874   6.270  0.00  0.00    +0.206 C 
BRANCH  28  29
ATOM     29  C24 UNL     1      -3.172  52.744   7.523  0.00  0.00    +0.051 C 
BRANCH  29  30
ATOM     30  C25 UNL     1      -1.803  53.245   7.998  0.00  0.00    +0.051 C 
BRANCH  30  31
ATOM     31  C26 UNL     1      -1.391  54.521   7.265  0.00  0.00    +0.206 C 
BRANCH  31  32
ATOM     32  O4  UNL     1      -0.466  54.194   6.229  0.00  0.00    -0.475 OA
BRANCH  32  33
ATOM     33  C27 UNL     1       0.922  54.100   6.396  0.00  0.00    +0.139 A 
ATOM     34  C28 UNL     1       1.565  55.095   7.136  0.00  0.00    +0.037 A 
ATOM     35  C29 UNL     1       2.950  55.072   7.307  0.00  0.00    +0.006 A 
ATOM     36  C30 UNL     1       3.724  54.034   6.753  0.00  0.00    +0.040 A 
ATOM     37  C32 UNL     1       3.070  53.018   6.028  0.00  0.00    +0.006 A 
ATOM     38  C33 UNL     1       1.684  53.053   5.846  0.00  0.00    +0.037 A 
BRANCH  36  39
ATOM     39  C31 UNL     1       5.200  54.017   6.924  0.00  0.00    +0.208 A 
ATOM     40  N3  UNL     1       6.005  55.101   6.880  0.00  0.00    -0.106 NA
ATOM     41  N4  UNL     1       7.227  54.649   7.100  0.00  0.00    -0.021 NA
ATOM     42  N5  UNL     1       7.191  53.339   7.271  0.00  0.00    -0.021 NA
ATOM     43  N6  UNL     1       5.945  52.916   7.170  0.00  0.00    -0.106 NA
ENDBRANCH  36  39
ENDBRANCH  32  33
ENDBRANCH  31  32
ENDBRANCH  30  31
ENDBRANCH  29  30
ENDBRANCH  28  29
ENDBRANCH  27  28
ENDBRANCH   6  27
TORSDOF 11
ENDMDL
