MODEL 1
REMARK VINA RESULT:      -7.0      0.000      0.000
REMARK  Name = ./data/4u7t_site_bc02/pdb/l0c1.pdb
REMARK  11 active torsions:
REMARK  status: ('A' for Active; 'I' for Inactive)
REMARK    1  A    between atoms: O1_2  and  C2_3
REMARK    2  A    between atoms: C5_6  and  C6_7
REMARK    3  A    between atoms: N2_9  and  C7_10
REMARK    4  A    between atoms: C19_23  and  O3_24
REMARK    5  A    between atoms: O3_24  and  C20_25
REMARK    6  A    between atoms: C20_25  and  C21_26
REMARK    7  A    between atoms: C21_26  and  C22_27
REMARK    8  A    between atoms: C22_27  and  C23_28
REMARK    9  A    between atoms: C23_28  and  O4_29
REMARK   10  A    between atoms: O4_29  and  C24_30
REMARK   11  A    between atoms: C27_33  and  C28_34
REMARK                            x       y       z     vdW  Elec       q    Type
REMARK                         _______ _______ _______ _____ _____    ______ ____
ROOT
ATOM      1  C2  UNL     1      45.240  74.536  -8.968  0.00  0.00    +0.172 A 
ATOM      2  C3  UNL     1      45.821  74.949 -10.179  0.00  0.00    +0.040 A 
ATOM      3  C4  UNL     1      45.067  74.970 -11.355  0.00  0.00    +0.005 A 
ATOM      4  C5  UNL     1      43.719  74.574 -11.353  0.00  0.00    +0.019 A 
ATOM      5  C18 UNL     1      43.131  74.209 -10.131  0.00  0.00    +0.041 A 
ATOM      6  C19 UNL     1      43.885  74.173  -8.942  0.00  0.00    +0.172 A 
ENDROOT
BRANCH   4   7
ATOM      7  C6  UNL     1      42.969  74.493 -12.638  0.00  0.00    +0.086 C 
ATOM      8  N1  UNL     1      43.243  73.583 -13.519  0.00  0.00    -0.171 NA
ATOM      9  N2  UNL     1      42.269  73.581 -14.518  0.00  0.00    -0.222 N 
ATOM     10  C14 UNL     1      41.377  74.483 -14.268  0.00  0.00    +0.257 C 
ATOM     11  O2  UNL     1      40.268  74.702 -15.082  0.00  0.00    -0.270 OA
ATOM     12  C15 UNL     1      41.699  75.248 -13.017  0.00  0.00    +0.110 C 
ATOM     13  C16 UNL     1      41.955  76.723 -13.376  0.00  0.00    +0.015 C 
ATOM     14  C17 UNL     1      40.578  75.071 -11.974  0.00  0.00    +0.015 C 
BRANCH   9  15
ATOM     15  C7  UNL     1      42.266  72.679 -15.680  0.00  0.00    +0.108 C 
ATOM     16  C8  UNL     1      43.587  71.864 -15.769  0.00  0.00    +0.024 C 
ATOM     17  C9  UNL     1      43.383  70.483 -16.413  0.00  0.00    +0.002 C 
ATOM     18  C10 UNL     1      43.225  70.521 -17.936  0.00  0.00    +0.000 C 
ATOM     19  C11 UNL     1      42.032  71.371 -18.405  0.00  0.00    +0.000 C 
ATOM     20  C12 UNL     1      42.332  72.874 -18.305  0.00  0.00    +0.002 C 
ATOM     21  C13 UNL     1      41.934  73.500 -16.957  0.00  0.00    +0.024 C 
ENDBRANCH   9  15
ENDBRANCH   4   7
BRANCH   1  23
ATOM     22  C1  UNL     1      46.375  75.606  -7.011  0.00  0.00    +0.253 C 
ATOM     23  O1  UNL     1      45.973  74.472  -7.771  0.00  0.00    -0.468 OA
ENDBRANCH   1  23
BRANCH   6  24
ATOM     24  O3  UNL     1      43.329  73.776  -7.708  0.00  0.00    -0.472 OA
BRANCH  24  25
ATOM     25  C20 UNL     1      42.147  74.322  -7.118  0.00  0.00    +0.206 C 
BRANCH  25  26
ATOM     26  C21 UNL     1      41.818  73.610  -5.798  0.00  0.00    +0.051 C 
BRANCH  26  27
ATOM     27  C22 UNL     1      40.301  73.536  -5.585  0.00  0.00    +0.051 C 
BRANCH  27  28
ATOM     28  C23 UNL     1      39.539  73.837  -6.878  0.00  0.00    +0.206 C 
BRANCH  28  29
ATOM     29  O4  UNL     1      38.873  72.665  -7.347  0.00  0.00    -0.475 OA
BRANCH  29  30
ATOM     30  C24 UNL     1      39.220  71.928  -8.492  0.00  0.00    +0.139 A 
ATOM     31  C25 UNL     1      39.986  72.461  -9.546  0.00  0.00    +0.037 A 
ATOM     32  C26 UNL     1      40.321  71.667 -10.649  0.00  0.00    +0.006 A 
ATOM     33  C27 UNL     1      39.892  70.328 -10.729  0.00  0.00    +0.040 A 
ATOM     34  C29 UNL     1      39.113  69.809  -9.678  0.00  0.00    +0.006 A 
ATOM     35  C30 UNL     1      38.786  70.601  -8.573  0.00  0.00    +0.037 A 
BRANCH  33  36
ATOM     36  C28 UNL     1      40.263  69.473 -11.894  0.00  0.00    +0.208 A 
ATOM     37  N3  UNL     1      39.906  68.182 -12.060  0.00  0.00    -0.106 NA
ATOM     38  N4  UNL     1      40.442  67.804 -13.209  0.00  0.00    -0.021 NA
ATOM     39  N5  UNL     1      41.105  68.816 -13.743  0.00  0.00    -0.021 NA
ATOM     40  N6  UNL     1      41.015  69.868 -12.947  0.00  0.00    -0.106 NA
ENDBRANCH  33  36
ENDBRANCH  29  30
ENDBRANCH  28  29
ENDBRANCH  27  28
ENDBRANCH  26  27
ENDBRANCH  25  26
ENDBRANCH  24  25
ENDBRANCH   6  24
TORSDOF 11
ENDMDL
MODEL 2
REMARK VINA RESULT:      -6.9      3.299      8.103
REMARK  Name = ./data/4u7t_site_bc02/pdb/l0c1.pdb
REMARK  11 active torsions:
REMARK  status: ('A' for Active; 'I' for Inactive)
REMARK    1  A    between atoms: O1_2  and  C2_3
REMARK    2  A    between atoms: C5_6  and  C6_7
REMARK    3  A    between atoms: N2_9  and  C7_10
REMARK    4  A    between atoms: C19_23  and  O3_24
REMARK    5  A    between atoms: O3_24  and  C20_25
REMARK    6  A    between atoms: C20_25  and  C21_26
REMARK    7  A    between atoms: C21_26  and  C22_27
REMARK    8  A    between atoms: C22_27  and  C23_28
REMARK    9  A    between atoms: C23_28  and  O4_29
REMARK   10  A    between atoms: O4_29  and  C24_30
REMARK   11  A    between atoms: C27_33  and  C28_34
REMARK                            x       y       z     vdW  Elec       q    Type
REMARK                         _______ _______ _______ _____ _____    ______ ____
ROOT
ATOM      1  C2  UNL     1      37.680  69.663  -8.828  0.00  0.00    +0.172 A 
ATOM      2  C3  UNL     1      37.096  70.615  -7.976  0.00  0.00    +0.040 A 
ATOM      3  C4  UNL     1      37.841  71.702  -7.512  0.00  0.00    +0.005 A 
ATOM      4  C5  UNL     1      39.188  71.861  -7.880  0.00  0.00    +0.019 A 
ATOM      5  C18 UNL     1      39.752  70.932  -8.769  0.00  0.00    +0.041 A 
ATOM      6  C19 UNL     1      39.013  69.827  -9.234  0.00  0.00    +0.172 A 
ENDROOT
BRANCH   4   7
ATOM      7  C6  UNL     1      39.994  72.960  -7.280  0.00  0.00    +0.086 C 
ATOM      8  N1  UNL     1      41.164  73.267  -7.746  0.00  0.00    -0.171 NA
ATOM      9  N2  UNL     1      41.609  74.455  -7.167  0.00  0.00    -0.222 N 
ATOM     10  C14 UNL     1      40.722  74.905  -6.339  0.00  0.00    +0.257 C 
ATOM     11  O2  UNL     1      40.880  76.089  -5.624  0.00  0.00    -0.270 OA
ATOM     12  C15 UNL     1      39.534  73.991  -6.253  0.00  0.00    +0.110 C 
ATOM     13  C16 UNL     1      39.435  73.421  -4.826  0.00  0.00    +0.015 C 
ATOM     14  C17 UNL     1      38.255  74.727  -6.694  0.00  0.00    +0.015 C 
BRANCH   9  15
ATOM     15  C7  UNL     1      42.900  75.097  -7.462  0.00  0.00    +0.108 C 
ATOM     16  C8  UNL     1      42.889  75.775  -8.861  0.00  0.00    +0.024 C 
ATOM     17  C9  UNL     1      43.809  77.005  -8.923  0.00  0.00    +0.002 C 
ATOM     18  C10 UNL     1      45.300  76.668  -9.024  0.00  0.00    +0.000 C 
ATOM     19  C11 UNL     1      45.816  75.831  -7.841  0.00  0.00    +0.000 C 
ATOM     20  C12 UNL     1      45.380  74.363  -7.951  0.00  0.00    +0.002 C 
ATOM     21  C13 UNL     1      44.038  74.059  -7.263  0.00  0.00    +0.024 C 
ENDBRANCH   9  15
ENDBRANCH   4   7
BRANCH   1  23
ATOM     22  C1  UNL     1      36.564  68.347 -10.641  0.00  0.00    +0.253 C 
ATOM     23  O1  UNL     1      36.973  68.540  -9.291  0.00  0.00    -0.468 OA
ENDBRANCH   1  23
BRANCH   6  24
ATOM     24  O3  UNL     1      39.566  68.860 -10.100  0.00  0.00    -0.472 OA
BRANCH  24  25
ATOM     25  C20 UNL     1      40.946  68.491 -10.155  0.00  0.00    +0.206 C 
BRANCH  25  26
ATOM     26  C21 UNL     1      41.157  67.317 -11.122  0.00  0.00    +0.051 C 
BRANCH  26  27
ATOM     27  C22 UNL     1      41.698  67.813 -12.469  0.00  0.00    +0.051 C 
BRANCH  27  28
ATOM     28  C23 UNL     1      40.639  68.605 -13.239  0.00  0.00    +0.206 C 
BRANCH  28  29
ATOM     29  O4  UNL     1      41.255  69.621 -14.030  0.00  0.00    -0.475 OA
BRANCH  29  30
ATOM     30  C24 UNL     1      41.325  70.985 -13.701  0.00  0.00    +0.139 A 
ATOM     31  C25 UNL     1      41.486  72.001 -14.662  0.00  0.00    +0.037 A 
ATOM     32  C26 UNL     1      41.523  73.344 -14.272  0.00  0.00    +0.006 A 
ATOM     33  C27 UNL     1      41.409  73.704 -12.915  0.00  0.00    +0.040 A 
ATOM     34  C29 UNL     1      41.265  72.680 -11.960  0.00  0.00    +0.006 A 
ATOM     35  C30 UNL     1      41.220  71.339 -12.352  0.00  0.00    +0.037 A 
BRANCH  33  36
ATOM     36  C28 UNL     1      41.429  75.136 -12.498  0.00  0.00    +0.208 A 
ATOM     37  N3  UNL     1      40.380  75.814 -11.987  0.00  0.00    -0.106 NA
ATOM     38  N4  UNL     1      40.819  77.042 -11.760  0.00  0.00    -0.021 NA
ATOM     39  N5  UNL     1      42.091  77.130 -12.113  0.00  0.00    -0.021 NA
ATOM     40  N6  UNL     1      42.498  75.960 -12.578  0.00  0.00    -0.106 NA
ENDBRANCH  33  36
ENDBRANCH  29  30
ENDBRANCH  28  29
ENDBRANCH  27  28
ENDBRANCH  26  27
ENDBRANCH  25  26
ENDBRANCH  24  25
ENDBRANCH   6  24
TORSDOF 11
ENDMDL
MODEL 3
REMARK VINA RESULT:      -6.7      2.210      3.532
REMARK  Name = ./data/4u7t_site_bc02/pdb/l0c1.pdb
REMARK  11 active torsions:
REMARK  status: ('A' for Active; 'I' for Inactive)
REMARK    1  A    between atoms: O1_2  and  C2_3
REMARK    2  A    between atoms: C5_6  and  C6_7
REMARK    3  A    between atoms: N2_9  and  C7_10
REMARK    4  A    between atoms: C19_23  and  O3_24
REMARK    5  A    between atoms: O3_24  and  C20_25
REMARK    6  A    between atoms: C20_25  and  C21_26
REMARK    7  A    between atoms: C21_26  and  C22_27
REMARK    8  A    between atoms: C22_27  and  C23_28
REMARK    9  A    between atoms: C23_28  and  O4_29
REMARK   10  A    between atoms: O4_29  and  C24_30
REMARK   11  A    between atoms: C27_33  and  C28_34
REMARK                            x       y       z     vdW  Elec       q    Type
REMARK                         _______ _______ _______ _____ _____    ______ ____
ROOT
ATOM      1  C2  UNL     1      41.109  73.507  -7.765  0.00  0.00    +0.172 A 
ATOM      2  C3  UNL     1      41.967  74.526  -8.210  0.00  0.00    +0.040 A 
ATOM      3  C4  UNL     1      41.973  74.911  -9.553  0.00  0.00    +0.005 A 
ATOM      4  C5  UNL     1      41.128  74.284 -10.485  0.00  0.00    +0.019 A 
ATOM      5  C18 UNL     1      40.238  73.300 -10.025  0.00  0.00    +0.041 A 
ATOM      6  C19 UNL     1      40.233  72.896  -8.675  0.00  0.00    +0.172 A 
ENDROOT
BRANCH   4   7
ATOM      7  C6  UNL     1      41.235  74.629 -11.930  0.00  0.00    +0.086 C 
ATOM      8  N1  UNL     1      41.032  73.740 -12.850  0.00  0.00    -0.171 NA
ATOM      9  N2  UNL     1      40.972  74.355 -14.100  0.00  0.00    -0.222 N 
ATOM     10  C14 UNL     1      41.132  75.632 -13.974  0.00  0.00    +0.257 C 
ATOM     11  O2  UNL     1      41.100  76.514 -15.052  0.00  0.00    -0.270 OA
ATOM     12  C15 UNL     1      41.358  76.022 -12.542  0.00  0.00    +0.110 C 
ATOM     13  C16 UNL     1      42.767  76.624 -12.397  0.00  0.00    +0.015 C 
ATOM     14  C17 UNL     1      40.248  76.974 -12.060  0.00  0.00    +0.015 C 
BRANCH   9  15
ATOM     15  C7  UNL     1      40.757  73.646 -15.371  0.00  0.00    +0.108 C 
ATOM     16  C8  UNL     1      41.992  73.776 -16.308  0.00  0.00    +0.024 C 
ATOM     17  C9  UNL     1      42.164  72.554 -17.225  0.00  0.00    +0.002 C 
ATOM     18  C10 UNL     1      41.188  72.515 -18.405  0.00  0.00    +0.000 C 
ATOM     19  C11 UNL     1      39.712  72.498 -17.975  0.00  0.00    +0.000 C 
ATOM     20  C12 UNL     1      39.240  73.883 -17.510  0.00  0.00    +0.002 C 
ATOM     21  C13 UNL     1      39.423  74.130 -16.003  0.00  0.00    +0.024 C 
ENDBRANCH   9  15
ENDBRANCH   4   7
BRANCH   1  23
ATOM     22  C1  UNL     1      40.484  73.778  -5.357  0.00  0.00    +0.253 C 
ATOM     23  O1  UNL     1      41.095  73.070  -6.429  0.00  0.00    -0.468 OA
ENDBRANCH   1  23
BRANCH   6  24
ATOM     24  O3  UNL     1      39.375  71.885  -8.194  0.00  0.00    -0.472 OA
BRANCH  24  25
ATOM     25  C20 UNL     1      38.150  72.104  -7.490  0.00  0.00    +0.206 C 
BRANCH  25  26
ATOM     26  C21 UNL     1      37.097  71.063  -7.894  0.00  0.00    +0.051 C 
BRANCH  26  27
ATOM     27  C22 UNL     1      37.766  69.818  -8.491  0.00  0.00    +0.051 C 
BRANCH  27  28
ATOM     28  C23 UNL     1      36.729  68.849  -9.067  0.00  0.00    +0.206 C 
BRANCH  28  29
ATOM     29  O4  UNL     1      36.791  68.846 -10.493  0.00  0.00    -0.475 OA
BRANCH  29  30
ATOM     30  C24 UNL     1      37.943  69.077 -11.263  0.00  0.00    +0.139 A 
ATOM     31  C25 UNL     1      38.143  70.252 -12.012  0.00  0.00    +0.037 A 
ATOM     32  C26 UNL     1      39.325  70.434 -12.739  0.00  0.00    +0.006 A 
ATOM     33  C27 UNL     1      40.329  69.446 -12.742  0.00  0.00    +0.040 A 
ATOM     34  C29 UNL     1      40.112  68.269 -12.003  0.00  0.00    +0.006 A 
ATOM     35  C30 UNL     1      38.934  68.091 -11.271  0.00  0.00    +0.037 A 
BRANCH  33  36
ATOM     36  C28 UNL     1      41.598  69.646 -13.500  0.00  0.00    +0.208 A 
ATOM     37  N3  UNL     1      42.776  69.050 -13.220  0.00  0.00    -0.106 NA
ATOM     38  N4  UNL     1      43.633  69.501 -14.122  0.00  0.00    -0.021 NA
ATOM     39  N5  UNL     1      43.018  70.344 -14.935  0.00  0.00    -0.021 NA
ATOM     40  N6  UNL     1      41.750  70.456 -14.572  0.00  0.00    -0.106 NA
ENDBRANCH  33  36
ENDBRANCH  29  30
ENDBRANCH  28  29
ENDBRANCH  27  28
ENDBRANCH  26  27
ENDBRANCH  25  26
ENDBRANCH  24  25
ENDBRANCH   6  24
TORSDOF 11
ENDMDL
MODEL 4
REMARK VINA RESULT:      -6.1      3.444      8.624
REMARK  Name = ./data/4u7t_site_bc02/pdb/l0c1.pdb
REMARK  11 active torsions:
REMARK  status: ('A' for Active; 'I' for Inactive)
REMARK    1  A    between atoms: O1_2  and  C2_3
REMARK    2  A    between atoms: C5_6  and  C6_7
REMARK    3  A    between atoms: N2_9  and  C7_10
REMARK    4  A    between atoms: C19_23  and  O3_24
REMARK    5  A    between atoms: O3_24  and  C20_25
REMARK    6  A    between atoms: C20_25  and  C21_26
REMARK    7  A    between atoms: C21_26  and  C22_27
REMARK    8  A    between atoms: C22_27  and  C23_28
REMARK    9  A    between atoms: C23_28  and  O4_29
REMARK   10  A    between atoms: O4_29  and  C24_30
REMARK   11  A    between atoms: C27_33  and  C28_34
REMARK                            x       y       z     vdW  Elec       q    Type
REMARK                         _______ _______ _______ _____ _____    ______ ____
ROOT
ATOM      1  C2  UNL     1      37.927  69.975  -8.859  0.00  0.00    +0.172 A 
ATOM      2  C3  UNL     1      37.353  70.898  -7.970  0.00  0.00    +0.040 A 
ATOM      3  C4  UNL     1      38.107  71.964  -7.472  0.00  0.00    +0.005 A 
ATOM      4  C5  UNL     1      39.453  72.129  -7.843  0.00  0.00    +0.019 A 
ATOM      5  C18 UNL     1      40.006  71.230  -8.769  0.00  0.00    +0.041 A 
ATOM      6  C19 UNL     1      39.258  70.146  -9.268  0.00  0.00    +0.172 A 
ENDROOT
BRANCH   4   7
ATOM      7  C6  UNL     1      40.269  73.202  -7.210  0.00  0.00    +0.086 C 
ATOM      8  N1  UNL     1      41.359  72.925  -6.567  0.00  0.00    -0.171 NA
ATOM      9  N2  UNL     1      42.045  74.103  -6.266  0.00  0.00    -0.222 N 
ATOM     10  C14 UNL     1      41.393  75.124  -6.721  0.00  0.00    +0.257 C 
ATOM     11  O2  UNL     1      41.844  76.435  -6.588  0.00  0.00    -0.270 OA
ATOM     12  C15 UNL     1      40.113  74.709  -7.387  0.00  0.00    +0.110 C 
ATOM     13  C16 UNL     1      38.922  75.291  -6.603  0.00  0.00    +0.015 C 
ATOM     14  C17 UNL     1      40.116  75.129  -8.869  0.00  0.00    +0.015 C 
BRANCH   9  15
ATOM     15  C7  UNL     1      43.321  74.164  -5.538  0.00  0.00    +0.108 C 
ATOM     16  C8  UNL     1      44.236  72.959  -5.896  0.00  0.00    +0.024 C 
ATOM     17  C9  UNL     1      45.731  73.309  -5.807  0.00  0.00    +0.002 C 
ATOM     18  C10 UNL     1      46.272  73.382  -4.376  0.00  0.00    +0.000 C 
ATOM     19  C11 UNL     1      45.554  74.426  -3.505  0.00  0.00    +0.000 C 
ATOM     20  C12 UNL     1      44.169  73.937  -3.056  0.00  0.00    +0.002 C 
ATOM     21  C13 UNL     1      43.032  74.318  -4.020  0.00  0.00    +0.024 C 
ENDBRANCH   9  15
ENDBRANCH   4   7
BRANCH   1  23
ATOM     22  C1  UNL     1      36.720  68.767 -10.690  0.00  0.00    +0.253 C 
ATOM     23  O1  UNL     1      37.210  68.873  -9.358  0.00  0.00    -0.468 OA
ENDBRANCH   1  23
BRANCH   6  24
ATOM     24  O3  UNL     1      39.800  69.208 -10.171  0.00  0.00    -0.472 OA
BRANCH  24  25
ATOM     25  C20 UNL     1      40.662  68.123  -9.821  0.00  0.00    +0.206 C 
BRANCH  25  26
ATOM     26  C21 UNL     1      41.270  67.483 -11.077  0.00  0.00    +0.051 C 
BRANCH  26  27
ATOM     27  C22 UNL     1      41.687  68.560 -12.087  0.00  0.00    +0.051 C 
BRANCH  27  28
ATOM     28  C23 UNL     1      40.896  68.437 -13.392  0.00  0.00    +0.206 C 
BRANCH  28  29
ATOM     29  O4  UNL     1      41.274  69.470 -14.302  0.00  0.00    -0.475 OA
BRANCH  29  30
ATOM     30  C24 UNL     1      41.387  70.836 -13.988  0.00  0.00    +0.139 A 
ATOM     31  C25 UNL     1      42.078  71.756 -14.799  0.00  0.00    +0.037 A 
ATOM     32  C26 UNL     1      42.132  73.109 -14.445  0.00  0.00    +0.006 A 
ATOM     33  C27 UNL     1      41.506  73.572 -13.272  0.00  0.00    +0.040 A 
ATOM     34  C29 UNL     1      40.832  72.641 -12.460  0.00  0.00    +0.006 A 
ATOM     35  C30 UNL     1      40.772  71.291 -12.818  0.00  0.00    +0.037 A 
BRANCH  33  36
ATOM     36  C28 UNL     1      41.546  75.017 -12.902  0.00  0.00    +0.208 A 
ATOM     37  N3  UNL     1      40.990  76.020 -13.614  0.00  0.00    -0.106 NA
ATOM     38  N4  UNL     1      41.259  77.129 -12.945  0.00  0.00    -0.021 NA
ATOM     39  N5  UNL     1      41.953  76.835 -11.858  0.00  0.00    -0.021 NA
ATOM     40  N6  UNL     1      42.150  75.528 -11.805  0.00  0.00    -0.106 NA
ENDBRANCH  33  36
ENDBRANCH  29  30
ENDBRANCH  28  29
ENDBRANCH  27  28
ENDBRANCH  26  27
ENDBRANCH  25  26
ENDBRANCH  24  25
ENDBRANCH   6  24
TORSDOF 11
ENDMDL
MODEL 5
REMARK VINA RESULT:      -4.3      2.801      4.792
REMARK  Name = ./data/4u7t_site_bc02/pdb/l0c1.pdb
REMARK  11 active torsions:
REMARK  status: ('A' for Active; 'I' for Inactive)
REMARK    1  A    between atoms: O1_2  and  C2_3
REMARK    2  A    between atoms: C5_6  and  C6_7
REMARK    3  A    between atoms: N2_9  and  C7_10
REMARK    4  A    between atoms: C19_23  and  O3_24
REMARK    5  A    between atoms: O3_24  and  C20_25
REMARK    6  A    between atoms: C20_25  and  C21_26
REMARK    7  A    between atoms: C21_26  and  C22_27
REMARK    8  A    between atoms: C22_27  and  C23_28
REMARK    9  A    between atoms: C23_28  and  O4_29
REMARK   10  A    between atoms: O4_29  and  C24_30
REMARK   11  A    between atoms: C27_33  and  C28_34
REMARK                            x       y       z     vdW  Elec       q    Type
REMARK                         _______ _______ _______ _____ _____    ______ ____
ROOT
ATOM      1  C2  UNL     1      39.759  72.830  -7.984  0.00  0.00    +0.172 A 
ATOM      2  C3  UNL     1      40.195  74.159  -8.115  0.00  0.00    +0.040 A 
ATOM      3  C4  UNL     1      40.478  74.690  -9.376  0.00  0.00    +0.005 A 
ATOM      4  C5  UNL     1      40.339  73.907 -10.535  0.00  0.00    +0.019 A 
ATOM      5  C18 UNL     1      39.857  72.595 -10.402  0.00  0.00    +0.041 A 
ATOM      6  C19 UNL     1      39.579  72.046  -9.134  0.00  0.00    +0.172 A 
ENDROOT
BRANCH   4   7
ATOM      7  C6  UNL     1      40.757  74.457 -11.854  0.00  0.00    +0.086 C 
ATOM      8  N1  UNL     1      40.453  73.854 -12.961  0.00  0.00    -0.171 NA
ATOM      9  N2  UNL     1      40.760  74.673 -14.047  0.00  0.00    -0.222 N 
ATOM     10  C14 UNL     1      41.254  75.794 -13.632  0.00  0.00    +0.257 C 
ATOM     11  O2  UNL     1      41.637  76.822 -14.492  0.00  0.00    -0.270 OA
ATOM     12  C15 UNL     1      41.361  75.830 -12.136  0.00  0.00    +0.110 C 
ATOM     13  C16 UNL     1      42.844  75.933 -11.735  0.00  0.00    +0.015 C 
ATOM     14  C17 UNL     1      40.505  76.975 -11.561  0.00  0.00    +0.015 C 
BRANCH   9  15
ATOM     15  C7  UNL     1      40.550  74.306 -15.456  0.00  0.00    +0.108 C 
ATOM     16  C8  UNL     1      39.535  73.136 -15.591  0.00  0.00    +0.024 C 
ATOM     17  C9  UNL     1      38.737  73.199 -16.905  0.00  0.00    +0.002 C 
ATOM     18  C10 UNL     1      39.526  72.747 -18.138  0.00  0.00    +0.000 C 
ATOM     19  C11 UNL     1      40.795  73.578 -18.389  0.00  0.00    +0.000 C 
ATOM     20  C12 UNL     1      41.921  73.204 -17.415  0.00  0.00    +0.002 C 
ATOM     21  C13 UNL     1      41.928  74.036 -16.121  0.00  0.00    +0.024 C 
ENDBRANCH   9  15
ENDBRANCH   4   7
BRANCH   1  23
ATOM     22  C1  UNL     1      39.626  72.927  -5.487  0.00  0.00    +0.253 C 
ATOM     23  O1  UNL     1      39.493  72.250  -6.732  0.00  0.00    -0.468 OA
ENDBRANCH   1  23
BRANCH   6  24
ATOM     24  O3  UNL     1      39.128  70.720  -8.969  0.00  0.00    -0.472 OA
BRANCH  24  25
ATOM     25  C20 UNL     1      37.763  70.298  -9.020  0.00  0.00    +0.206 C 
BRANCH  25  26
ATOM     26  C21 UNL     1      37.617  69.032  -9.877  0.00  0.00    +0.051 C 
BRANCH  26  27
ATOM     27  C22 UNL     1      38.793  68.075  -9.637  0.00  0.00    +0.051 C 
BRANCH  27  28
ATOM     28  C23 UNL     1      39.634  67.897 -10.904  0.00  0.00    +0.206 C 
BRANCH  28  29
ATOM     29  O4  UNL     1      40.564  68.971 -11.038  0.00  0.00    -0.475 OA
BRANCH  29  30
ATOM     30  C24 UNL     1      41.198  69.361 -12.230  0.00  0.00    +0.139 A 
ATOM     31  C25 UNL     1      40.829  70.508 -12.958  0.00  0.00    +0.037 A 
ATOM     32  C26 UNL     1      41.517  70.857 -14.125  0.00  0.00    +0.006 A 
ATOM     33  C27 UNL     1      42.582  70.065 -14.597  0.00  0.00    +0.040 A 
ATOM     34  C29 UNL     1      42.933  68.912 -13.872  0.00  0.00    +0.006 A 
ATOM     35  C30 UNL     1      42.250  68.569 -12.701  0.00  0.00    +0.037 A 
BRANCH  33  36
ATOM     36  C28 UNL     1      43.330  70.445 -15.831  0.00  0.00    +0.208 A 
ATOM     37  N3  UNL     1      43.030  70.036 -17.082  0.00  0.00    -0.106 NA
ATOM     38  N4  UNL     1      43.935  70.592 -17.871  0.00  0.00    -0.021 NA
ATOM     39  N5  UNL     1      44.766  71.323 -17.146  0.00  0.00    -0.021 NA
ATOM     40  N6  UNL     1      44.417  71.249 -15.872  0.00  0.00    -0.106 NA
ENDBRANCH  33  36
ENDBRANCH  29  30
ENDBRANCH  28  29
ENDBRANCH  27  28
ENDBRANCH  26  27
ENDBRANCH  25  26
ENDBRANCH  24  25
ENDBRANCH   6  24
TORSDOF 11
ENDMDL
