MODEL 1
REMARK VINA RESULT:      -6.3      0.000      0.000
REMARK  Name = ./data/4u7t_site_bc02/pdb/l1c2.pdb
REMARK  11 active torsions:
REMARK  status: ('A' for Active; 'I' for Inactive)
REMARK    1  A    between atoms: O1_2  and  C2_3
REMARK    2  A    between atoms: C5_6  and  C6_7
REMARK    3  A    between atoms: N2_9  and  C7_10
REMARK    4  A    between atoms: C22_26  and  O3_27
REMARK    5  A    between atoms: O3_27  and  C23_28
REMARK    6  A    between atoms: C23_28  and  C24_29
REMARK    7  A    between atoms: C24_29  and  C25_30
REMARK    8  A    between atoms: C25_30  and  C26_31
REMARK    9  A    between atoms: C26_31  and  O4_32
REMARK   10  A    between atoms: O4_32  and  C27_33
REMARK   11  A    between atoms: C30_36  and  C31_37
REMARK                            x       y       z     vdW  Elec       q    Type
REMARK                         _______ _______ _______ _____ _____    ______ ____
ROOT
ATOM      1  C2  UNL     1       0.950  51.327   0.808  0.00  0.00    +0.172 A 
ATOM      2  C3  UNL     1       2.100  51.646   1.556  0.00  0.00    +0.040 A 
ATOM      3  C4  UNL     1       1.983  52.145   2.855  0.00  0.00    +0.005 A 
ATOM      4  C5  UNL     1       0.719  52.316   3.434  0.00  0.00    +0.018 A 
ATOM      5  C21 UNL     1      -0.429  52.035   2.678  0.00  0.00    +0.041 A 
ATOM      6  C22 UNL     1      -0.322  51.523   1.371  0.00  0.00    +0.172 A 
ENDROOT
BRANCH   4   7
ATOM      7  C6  UNL     1       0.567  52.806   4.817  0.00  0.00    +0.079 C 
ATOM      8  N1  UNL     1      -0.624  53.160   5.206  0.00  0.00    -0.172 NA
ATOM      9  N2  UNL     1      -0.951  53.449   6.552  0.00  0.00    -0.222 N 
ATOM     10  C14 UNL     1       0.003  53.622   7.444  0.00  0.00    +0.253 C 
ATOM     11  O2  UNL     1      -0.295  53.879   8.784  0.00  0.00    -0.271 OA
ATOM     12  C15 UNL     1       1.450  53.575   7.016  0.00  0.00    +0.091 C 
ATOM     13  C16 UNL     1       1.907  54.978   6.572  0.00  0.00    +0.035 C 
ATOM     14  C17 UNL     1       3.197  54.967   5.798  0.00  0.00    -0.030 C 
ATOM     15  C18 UNL     1       3.664  53.872   5.182  0.00  0.00    -0.030 C 
ATOM     16  C19 UNL     1       3.079  52.504   5.407  0.00  0.00    +0.032 C 
ATOM     17  C20 UNL     1       1.613  52.544   5.885  0.00  0.00    +0.056 C 
BRANCH   9  18
ATOM     18  C7  UNL     1      -2.389  53.457   6.894  0.00  0.00    +0.108 C 
ATOM     19  C8  UNL     1      -3.197  52.535   5.954  0.00  0.00    +0.024 C 
ATOM     20  C9  UNL     1      -4.690  52.443   6.316  0.00  0.00    +0.002 C 
ATOM     21  C10 UNL     1      -5.468  53.703   5.898  0.00  0.00    +0.000 C 
ATOM     22  C11 UNL     1      -5.508  54.818   6.961  0.00  0.00    +0.000 C 
ATOM     23  C12 UNL     1      -4.226  55.010   7.794  0.00  0.00    +0.002 C 
ATOM     24  C13 UNL     1      -2.923  54.908   6.980  0.00  0.00    +0.024 C 
ENDBRANCH   9  18
ENDBRANCH   4   7
BRANCH   1  26
ATOM     25  C1  UNL     1       1.862  51.328  -1.523  0.00  0.00    +0.253 C 
ATOM     26  O1  UNL     1       1.029  50.803  -0.493  0.00  0.00    -0.468 OA
ENDBRANCH   1  26
BRANCH   6  27
ATOM     27  O3  UNL     1      -1.452  51.180   0.608  0.00  0.00    -0.472 OA
BRANCH  27  28
ATOM     28  C23 UNL     1      -2.804  51.371   1.022  0.00  0.00    +0.206 C 
BRANCH  28  29
ATOM     29  C24 UNL     1      -3.659  51.813  -0.166  0.00  0.00    +0.051 C 
BRANCH  29  30
ATOM     30  C25 UNL     1      -2.939  51.543  -1.496  0.00  0.00    +0.051 C 
BRANCH  30  31
ATOM     31  C26 UNL     1      -3.154  52.692  -2.488  0.00  0.00    +0.206 C 
BRANCH  31  32
ATOM     32  O4  UNL     1      -2.529  52.400  -3.739  0.00  0.00    -0.475 OA
BRANCH  32  33
ATOM     33  C27 UNL     1      -1.203  52.721  -4.080  0.00  0.00    +0.139 A 
ATOM     34  C28 UNL     1      -0.474  52.024  -5.065  0.00  0.00    +0.037 A 
ATOM     35  C29 UNL     1       0.854  52.367  -5.337  0.00  0.00    +0.006 A 
ATOM     36  C30 UNL     1       1.472  53.421  -4.646  0.00  0.00    +0.040 A 
ATOM     37  C32 UNL     1       0.739  54.124  -3.676  0.00  0.00    +0.006 A 
ATOM     38  C33 UNL     1      -0.585  53.775  -3.397  0.00  0.00    +0.037 A 
BRANCH  36  39
ATOM     39  C31 UNL     1       2.875  53.788  -4.937  0.00  0.00    +0.208 A 
ATOM     40  N3  UNL     1       3.263  54.857  -5.664  0.00  0.00    -0.106 NA
ATOM     41  N4  UNL     1       4.584  54.812  -5.692  0.00  0.00    -0.021 NA
ATOM     42  N5  UNL     1       5.007  53.763  -5.010  0.00  0.00    -0.021 NA
ATOM     43  N6  UNL     1       3.967  53.104  -4.527  0.00  0.00    -0.106 NA
ENDBRANCH  36  39
ENDBRANCH  32  33
ENDBRANCH  31  32
ENDBRANCH  30  31
ENDBRANCH  29  30
ENDBRANCH  28  29
ENDBRANCH  27  28
ENDBRANCH   6  27
TORSDOF 11
ENDMDL
MODEL 2
REMARK VINA RESULT:      -5.7      3.239     10.037
REMARK  Name = ./data/4u7t_site_bc02/pdb/l1c2.pdb
REMARK  11 active torsions:
REMARK  status: ('A' for Active; 'I' for Inactive)
REMARK    1  A    between atoms: O1_2  and  C2_3
REMARK    2  A    between atoms: C5_6  and  C6_7
REMARK    3  A    between atoms: N2_9  and  C7_10
REMARK    4  A    between atoms: C22_26  and  O3_27
REMARK    5  A    between atoms: O3_27  and  C23_28
REMARK    6  A    between atoms: C23_28  and  C24_29
REMARK    7  A    between atoms: C24_29  and  C25_30
REMARK    8  A    between atoms: C25_30  and  C26_31
REMARK    9  A    between atoms: C26_31  and  O4_32
REMARK   10  A    between atoms: O4_32  and  C27_33
REMARK   11  A    between atoms: C30_36  and  C31_37
REMARK                            x       y       z     vdW  Elec       q    Type
REMARK                         _______ _______ _______ _____ _____    ______ ____
ROOT
ATOM      1  C2  UNL     1       1.854  50.830   2.852  0.00  0.00    +0.172 A 
ATOM      2  C3  UNL     1       2.163  50.078   1.701  0.00  0.00    +0.040 A 
ATOM      3  C4  UNL     1       1.393  50.205   0.544  0.00  0.00    +0.005 A 
ATOM      4  C5  UNL     1       0.312  51.097   0.511  0.00  0.00    +0.018 A 
ATOM      5  C21 UNL     1      -0.022  51.819   1.667  0.00  0.00    +0.041 A 
ATOM      6  C22 UNL     1       0.755  51.705   2.835  0.00  0.00    +0.172 A 
ENDROOT
BRANCH   4   7
ATOM      7  C6  UNL     1      -0.496  51.279  -0.709  0.00  0.00    +0.079 C 
ATOM      8  N1  UNL     1       0.055  51.893  -1.716  0.00  0.00    -0.172 NA
ATOM      9  N2  UNL     1      -0.524  51.954  -3.006  0.00  0.00    -0.222 N 
ATOM     10  C14 UNL     1      -1.783  51.606  -3.184  0.00  0.00    +0.253 C 
ATOM     11  O2  UNL     1      -2.369  51.630  -4.452  0.00  0.00    -0.271 OA
ATOM     12  C15 UNL     1      -2.627  51.202  -1.999  0.00  0.00    +0.091 C 
ATOM     13  C16 UNL     1      -3.285  52.451  -1.380  0.00  0.00    +0.035 C 
ATOM     14  C17 UNL     1      -3.842  52.210  -0.003  0.00  0.00    -0.030 C 
ATOM     15  C18 UNL     1      -3.439  51.195   0.774  0.00  0.00    -0.030 C 
ATOM     16  C19 UNL     1      -2.583  50.070   0.260  0.00  0.00    +0.032 C 
ATOM     17  C20 UNL     1      -1.748  50.461  -0.977  0.00  0.00    +0.056 C 
BRANCH   9  18
ATOM     18  C7  UNL     1       0.374  52.338  -4.114  0.00  0.00    +0.108 C 
ATOM     19  C8  UNL     1       1.738  51.620  -4.010  0.00  0.00    +0.024 C 
ATOM     20  C9  UNL     1       2.685  51.922  -5.185  0.00  0.00    +0.002 C 
ATOM     21  C10 UNL     1       3.311  53.324  -5.079  0.00  0.00    +0.000 C 
ATOM     22  C11 UNL     1       2.490  54.448  -5.743  0.00  0.00    +0.000 C 
ATOM     23  C12 UNL     1       0.959  54.336  -5.619  0.00  0.00    +0.002 C 
ATOM     24  C13 UNL     1       0.470  53.879  -4.232  0.00  0.00    +0.024 C 
ENDBRANCH   9  18
ENDBRANCH   4   7
BRANCH   1  26
ATOM     25  C1  UNL     1       3.661  51.653   4.375  0.00  0.00    +0.253 C 
ATOM     26  O1  UNL     1       2.619  50.745   4.027  0.00  0.00    -0.468 OA
ENDBRANCH   1  26
BRANCH   6  27
ATOM     27  O3  UNL     1       0.478  52.455   3.992  0.00  0.00    -0.472 OA
BRANCH  27  28
ATOM     28  C23 UNL     1      -0.469  52.090   4.993  0.00  0.00    +0.206 C 
BRANCH  28  29
ATOM     29  C24 UNL     1      -1.714  52.970   4.884  0.00  0.00    +0.051 C 
BRANCH  29  30
ATOM     30  C25 UNL     1      -1.664  54.126   5.894  0.00  0.00    +0.051 C 
BRANCH  30  31
ATOM     31  C26 UNL     1      -0.548  53.917   6.924  0.00  0.00    +0.206 C 
BRANCH  31  32
ATOM     32  O4  UNL     1       0.493  54.878   6.741  0.00  0.00    -0.475 OA
BRANCH  32  33
ATOM     33  C27 UNL     1       1.870  54.621   6.877  0.00  0.00    +0.139 A 
ATOM     34  C28 UNL     1       2.401  53.808   7.899  0.00  0.00    +0.037 A 
ATOM     35  C29 UNL     1       3.782  53.617   8.002  0.00  0.00    +0.006 A 
ATOM     36  C30 UNL     1       4.656  54.216   7.081  0.00  0.00    +0.040 A 
ATOM     37  C32 UNL     1       4.122  55.013   6.055  0.00  0.00    +0.006 A 
ATOM     38  C33 UNL     1       2.743  55.213   5.956  0.00  0.00    +0.037 A 
BRANCH  36  39
ATOM     39  C31 UNL     1       6.116  54.009   7.188  0.00  0.00    +0.208 A 
ATOM     40  N3  UNL     1       6.728  52.807   7.246  0.00  0.00    -0.106 NA
ATOM     41  N4  UNL     1       8.020  53.066   7.347  0.00  0.00    -0.021 NA
ATOM     42  N5  UNL     1       8.211  54.373   7.349  0.00  0.00    -0.021 NA
ATOM     43  N6  UNL     1       7.045  54.988   7.252  0.00  0.00    -0.106 NA
ENDBRANCH  36  39
ENDBRANCH  32  33
ENDBRANCH  31  32
ENDBRANCH  30  31
ENDBRANCH  29  30
ENDBRANCH  28  29
ENDBRANCH  27  28
ENDBRANCH   6  27
TORSDOF 11
ENDMDL
MODEL 3
REMARK VINA RESULT:      -5.6      1.358      4.179
REMARK  Name = ./data/4u7t_site_bc02/pdb/l1c2.pdb
REMARK  11 active torsions:
REMARK  status: ('A' for Active; 'I' for Inactive)
REMARK    1  A    between atoms: O1_2  and  C2_3
REMARK    2  A    between atoms: C5_6  and  C6_7
REMARK    3  A    between atoms: N2_9  and  C7_10
REMARK    4  A    between atoms: C22_26  and  O3_27
REMARK    5  A    between atoms: O3_27  and  C23_28
REMARK    6  A    between atoms: C23_28  and  C24_29
REMARK    7  A    between atoms: C24_29  and  C25_30
REMARK    8  A    between atoms: C25_30  and  C26_31
REMARK    9  A    between atoms: C26_31  and  O4_32
REMARK   10  A    between atoms: O4_32  and  C27_33
REMARK   11  A    between atoms: C30_36  and  C31_37
REMARK                            x       y       z     vdW  Elec       q    Type
REMARK                         _______ _______ _______ _____ _____    ______ ____
ROOT
ATOM      1  C2  UNL     1      -0.246  51.246   1.053  0.00  0.00    +0.172 A 
ATOM      2  C3  UNL     1       0.941  51.625   1.712  0.00  0.00    +0.040 A 
ATOM      3  C4  UNL     1       0.896  52.145   3.007  0.00  0.00    +0.005 A 
ATOM      4  C5  UNL     1      -0.330  52.280   3.671  0.00  0.00    +0.018 A 
ATOM      5  C21 UNL     1      -1.517  51.939   3.003  0.00  0.00    +0.041 A 
ATOM      6  C22 UNL     1      -1.482  51.404   1.702  0.00  0.00    +0.172 A 
ENDROOT
BRANCH   4   7
ATOM      7  C6  UNL     1      -0.405  52.792   5.052  0.00  0.00    +0.079 C 
ATOM      8  N1  UNL     1       0.714  52.961   5.697  0.00  0.00    -0.172 NA
ATOM      9  N2  UNL     1       0.805  53.633   6.939  0.00  0.00    -0.222 N 
ATOM     10  C14 UNL     1      -0.285  53.898   7.631  0.00  0.00    +0.253 C 
ATOM     11  O2  UNL     1      -0.223  54.586   8.845  0.00  0.00    -0.271 OA
ATOM     12  C15 UNL     1      -1.628  53.428   7.127  0.00  0.00    +0.091 C 
ATOM     13  C16 UNL     1      -1.907  52.003   7.644  0.00  0.00    +0.035 C 
ATOM     14  C17 UNL     1      -3.031  51.315   6.917  0.00  0.00    -0.030 C 
ATOM     15  C18 UNL     1      -3.444  51.691   5.699  0.00  0.00    -0.030 C 
ATOM     16  C19 UNL     1      -2.997  52.974   5.052  0.00  0.00    +0.032 C 
ATOM     17  C20 UNL     1      -1.644  53.484   5.590  0.00  0.00    +0.056 C 
BRANCH   9  18
ATOM     18  C7  UNL     1       2.153  54.078   7.350  0.00  0.00    +0.108 C 
ATOM     19  C8  UNL     1       2.862  54.851   6.216  0.00  0.00    +0.024 C 
ATOM     20  C9  UNL     1       4.239  55.408   6.618  0.00  0.00    +0.002 C 
ATOM     21  C10 UNL     1       5.317  54.311   6.667  0.00  0.00    +0.000 C 
ATOM     22  C11 UNL     1       5.454  53.603   8.030  0.00  0.00    +0.000 C 
ATOM     23  C12 UNL     1       4.144  53.357   8.803  0.00  0.00    +0.002 C 
ATOM     24  C13 UNL     1       2.969  52.894   7.923  0.00  0.00    +0.024 C 
ENDBRANCH   9  18
ENDBRANCH   4   7
BRANCH   1  26
ATOM     25  C1  UNL     1       0.368  51.317  -1.372  0.00  0.00    +0.253 C 
ATOM     26  O1  UNL     1      -0.238  50.698  -0.240  0.00  0.00    -0.468 OA
ENDBRANCH   1  26
BRANCH   6  27
ATOM     27  O3  UNL     1      -2.648  51.002   1.027  0.00  0.00    -0.472 OA
BRANCH  27  28
ATOM     28  C23 UNL     1      -3.461  51.857   0.224  0.00  0.00    +0.206 C 
BRANCH  28  29
ATOM     29  C24 UNL     1      -3.623  51.263  -1.175  0.00  0.00    +0.051 C 
BRANCH  29  30
ATOM     30  C25 UNL     1      -3.188  52.264  -2.255  0.00  0.00    +0.051 C 
BRANCH  30  31
ATOM     31  C26 UNL     1      -2.868  51.553  -3.575  0.00  0.00    +0.206 C 
BRANCH  31  32
ATOM     32  O4  UNL     1      -2.254  52.456  -4.497  0.00  0.00    -0.475 OA
BRANCH  32  33
ATOM     33  C27 UNL     1      -0.883  52.765  -4.543  0.00  0.00    +0.139 A 
ATOM     34  C28 UNL     1      -0.365  54.017  -4.155  0.00  0.00    +0.037 A 
ATOM     35  C29 UNL     1       1.005  54.277  -4.254  0.00  0.00    +0.006 A 
ATOM     36  C30 UNL     1       1.885  53.288  -4.724  0.00  0.00    +0.040 A 
ATOM     37  C32 UNL     1       1.368  52.036  -5.095  0.00  0.00    +0.006 A 
ATOM     38  C33 UNL     1      -0.002  51.780  -5.005  0.00  0.00    +0.037 A 
BRANCH  36  39
ATOM     39  C31 UNL     1       3.335  53.561  -4.824  0.00  0.00    +0.208 A 
ATOM     40  N3  UNL     1       3.880  54.713  -5.270  0.00  0.00    -0.106 NA
ATOM     41  N4  UNL     1       5.189  54.538  -5.209  0.00  0.00    -0.021 NA
ATOM     42  N5  UNL     1       5.454  53.333  -4.740  0.00  0.00    -0.021 NA
ATOM     43  N6  UNL     1       4.321  52.698  -4.491  0.00  0.00    -0.106 NA
ENDBRANCH  36  39
ENDBRANCH  32  33
ENDBRANCH  31  32
ENDBRANCH  30  31
ENDBRANCH  29  30
ENDBRANCH  28  29
ENDBRANCH  27  28
ENDBRANCH   6  27
TORSDOF 11
ENDMDL
MODEL 4
REMARK VINA RESULT:      -5.1      4.619      6.279
REMARK  Name = ./data/4u7t_site_bc02/pdb/l1c2.pdb
REMARK  11 active torsions:
REMARK  status: ('A' for Active; 'I' for Inactive)
REMARK    1  A    between atoms: O1_2  and  C2_3
REMARK    2  A    between atoms: C5_6  and  C6_7
REMARK    3  A    between atoms: N2_9  and  C7_10
REMARK    4  A    between atoms: C22_26  and  O3_27
REMARK    5  A    between atoms: O3_27  and  C23_28
REMARK    6  A    between atoms: C23_28  and  C24_29
REMARK    7  A    between atoms: C24_29  and  C25_30
REMARK    8  A    between atoms: C25_30  and  C26_31
REMARK    9  A    between atoms: C26_31  and  O4_32
REMARK   10  A    between atoms: O4_32  and  C27_33
REMARK   11  A    between atoms: C30_36  and  C31_37
REMARK                            x       y       z     vdW  Elec       q    Type
REMARK                         _______ _______ _______ _____ _____    ______ ____
ROOT
ATOM      1  C2  UNL     1       1.784  51.103  -2.322  0.00  0.00    +0.172 A 
ATOM      2  C3  UNL     1       2.653  50.681  -1.297  0.00  0.00    +0.040 A 
ATOM      3  C4  UNL     1       2.223  50.658   0.031  0.00  0.00    +0.005 A 
ATOM      4  C5  UNL     1       0.914  51.038   0.356  0.00  0.00    +0.018 A 
ATOM      5  C21 UNL     1       0.058  51.495  -0.658  0.00  0.00    +0.041 A 
ATOM      6  C22 UNL     1       0.479  51.513  -2.001  0.00  0.00    +0.172 A 
ENDROOT
BRANCH   4   7
ATOM      7  C6  UNL     1       0.421  50.989   1.745  0.00  0.00    +0.079 C 
ATOM      8  N1  UNL     1      -0.866  51.039   1.933  0.00  0.00    -0.172 NA
ATOM      9  N2  UNL     1      -1.482  50.795   3.183  0.00  0.00    -0.222 N 
ATOM     10  C14 UNL     1      -0.758  50.756   4.284  0.00  0.00    +0.253 C 
ATOM     11  O2  UNL     1      -1.338  50.488   5.525  0.00  0.00    -0.271 OA
ATOM     12  C15 UNL     1       0.724  51.036   4.217  0.00  0.00    +0.091 C 
ATOM     13  C16 UNL     1       0.975  52.549   4.363  0.00  0.00    +0.035 C 
ATOM     14  C17 UNL     1       2.362  52.965   3.954  0.00  0.00    -0.030 C 
ATOM     15  C18 UNL     1       3.135  52.221   3.152  0.00  0.00    -0.030 C 
ATOM     16  C19 UNL     1       2.795  50.802   2.786  0.00  0.00    +0.032 C 
ATOM     17  C20 UNL     1       1.286  50.495   2.891  0.00  0.00    +0.056 C 
BRANCH   9  18
ATOM     18  C7  UNL     1      -2.932  50.510   3.159  0.00  0.00    +0.108 C 
ATOM     19  C8  UNL     1      -3.458  50.382   1.712  0.00  0.00    +0.024 C 
ATOM     20  C9  UNL     1      -4.948  50.005   1.629  0.00  0.00    +0.002 C 
ATOM     21  C10 UNL     1      -5.866  51.197   1.955  0.00  0.00    +0.000 C 
ATOM     22  C11 UNL     1      -6.218  51.350   3.448  0.00  0.00    +0.000 C 
ATOM     23  C12 UNL     1      -5.095  51.015   4.449  0.00  0.00    +0.002 C 
ATOM     24  C13 UNL     1      -3.705  51.529   4.032  0.00  0.00    +0.024 C 
ENDBRANCH   9  18
ENDBRANCH   4   7
BRANCH   1  26
ATOM     25  C1  UNL     1       3.244  51.904  -4.190  0.00  0.00    +0.253 C 
ATOM     26  O1  UNL     1       2.174  51.119  -3.671  0.00  0.00    -0.468 OA
ENDBRANCH   1  26
BRANCH   6  27
ATOM     27  O3  UNL     1      -0.373  51.913  -3.046  0.00  0.00    -0.472 OA
BRANCH  27  28
ATOM     28  C23 UNL     1      -0.795  53.255  -3.285  0.00  0.00    +0.206 C 
BRANCH  28  29
ATOM     29  C24 UNL     1       0.407  54.126  -3.647  0.00  0.00    +0.051 C 
BRANCH  29  30
ATOM     30  C25 UNL     1      -0.008  55.593  -3.829  0.00  0.00    +0.051 C 
BRANCH  30  31
ATOM     31  C26 UNL     1       0.211  56.397  -2.542  0.00  0.00    +0.206 C 
BRANCH  31  32
ATOM     32  O4  UNL     1       0.028  57.794  -2.783  0.00  0.00    -0.475 OA
BRANCH  32  33
ATOM     33  C27 UNL     1      -0.197  58.767  -1.793  0.00  0.00    +0.139 A 
ATOM     34  C28 UNL     1      -0.640  60.073  -2.088  0.00  0.00    +0.037 A 
ATOM     35  C29 UNL     1      -0.814  61.008  -1.063  0.00  0.00    +0.006 A 
ATOM     36  C30 UNL     1      -0.568  60.654   0.273  0.00  0.00    +0.040 A 
ATOM     37  C32 UNL     1      -0.142  59.348   0.565  0.00  0.00    +0.006 A 
ATOM     38  C33 UNL     1       0.041  58.416  -0.459  0.00  0.00    +0.037 A 
BRANCH  36  39
ATOM     39  C31 UNL     1      -0.758  61.642   1.358  0.00  0.00    +0.208 A 
ATOM     40  N3  UNL     1       0.211  62.075   2.192  0.00  0.00    -0.106 NA
ATOM     41  N4  UNL     1      -0.376  62.933   3.009  0.00  0.00    -0.021 NA
ATOM     42  N5  UNL     1      -1.655  63.037   2.698  0.00  0.00    -0.021 NA
ATOM     43  N6  UNL     1      -1.925  62.245   1.674  0.00  0.00    -0.106 NA
ENDBRANCH  36  39
ENDBRANCH  32  33
ENDBRANCH  31  32
ENDBRANCH  30  31
ENDBRANCH  29  30
ENDBRANCH  28  29
ENDBRANCH  27  28
ENDBRANCH   6  27
TORSDOF 11
ENDMDL
MODEL 5
REMARK VINA RESULT:      -4.6      2.846     10.242
REMARK  Name = ./data/4u7t_site_bc02/pdb/l1c2.pdb
REMARK  11 active torsions:
REMARK  status: ('A' for Active; 'I' for Inactive)
REMARK    1  A    between atoms: O1_2  and  C2_3
REMARK    2  A    between atoms: C5_6  and  C6_7
REMARK    3  A    between atoms: N2_9  and  C7_10
REMARK    4  A    between atoms: C22_26  and  O3_27
REMARK    5  A    between atoms: O3_27  and  C23_28
REMARK    6  A    between atoms: C23_28  and  C24_29
REMARK    7  A    between atoms: C24_29  and  C25_30
REMARK    8  A    between atoms: C25_30  and  C26_31
REMARK    9  A    between atoms: C26_31  and  O4_32
REMARK   10  A    between atoms: O4_32  and  C27_33
REMARK   11  A    between atoms: C30_36  and  C31_37
REMARK                            x       y       z     vdW  Elec       q    Type
REMARK                         _______ _______ _______ _____ _____    ______ ____
ROOT
ATOM      1  C2  UNL     1       2.501  52.620   4.222  0.00  0.00    +0.172 A 
ATOM      2  C3  UNL     1       2.936  52.722   2.886  0.00  0.00    +0.040 A 
ATOM      3  C4  UNL     1       2.107  52.316   1.838  0.00  0.00    +0.005 A 
ATOM      4  C5  UNL     1       0.825  51.820   2.105  0.00  0.00    +0.018 A 
ATOM      5  C21 UNL     1       0.402  51.682   3.437  0.00  0.00    +0.041 A 
ATOM      6  C22 UNL     1       1.227  52.097   4.499  0.00  0.00    +0.172 A 
ENDROOT
BRANCH   4   7
ATOM      7  C6  UNL     1      -0.086  51.419   1.017  0.00  0.00    +0.079 C 
ATOM      8  N1  UNL     1       0.175  51.851  -0.183  0.00  0.00    -0.172 NA
ATOM      9  N2  UNL     1      -0.486  51.382  -1.343  0.00  0.00    -0.222 N 
ATOM     10  C14 UNL     1      -1.586  50.664  -1.235  0.00  0.00    +0.253 C 
ATOM     11  O2  UNL     1      -2.240  50.166  -2.364  0.00  0.00    -0.271 OA
ATOM     12  C15 UNL     1      -2.176  50.395   0.128  0.00  0.00    +0.091 C 
ATOM     13  C16 UNL     1      -3.141  51.535   0.511  0.00  0.00    +0.035 C 
ATOM     14  C17 UNL     1      -3.496  51.548   1.973  0.00  0.00    -0.030 C 
ATOM     15  C18 UNL     1      -2.746  50.947   2.907  0.00  0.00    -0.030 C 
ATOM     16  C19 UNL     1      -1.624  50.005   2.563  0.00  0.00    +0.032 C 
ATOM     17  C20 UNL     1      -1.041  50.246   1.155  0.00  0.00    +0.056 C 
BRANCH   9  18
ATOM     18  C7  UNL     1       0.169  51.671  -2.636  0.00  0.00    +0.108 C 
ATOM     19  C8  UNL     1       1.390  50.753  -2.868  0.00  0.00    +0.024 C 
ATOM     20  C9  UNL     1       2.062  50.955  -4.237  0.00  0.00    +0.002 C 
ATOM     21  C10 UNL     1       2.905  52.242  -4.285  0.00  0.00    +0.000 C 
ATOM     22  C11 UNL     1       2.133  53.501  -4.727  0.00  0.00    +0.000 C 
ATOM     23  C12 UNL     1       0.678  53.615  -4.235  0.00  0.00    +0.002 C 
ATOM     24  C13 UNL     1       0.471  53.183  -2.771  0.00  0.00    +0.024 C 
ENDBRANCH   9  18
ENDBRANCH   4   7
BRANCH   1  26
ATOM     25  C1  UNL     1       4.279  52.225   5.938  0.00  0.00    +0.253 C 
ATOM     26  O1  UNL     1       3.298  53.038   5.300  0.00  0.00    -0.468 OA
ENDBRANCH   1  26
BRANCH   6  27
ATOM     27  O3  UNL     1       0.811  52.023   5.840  0.00  0.00    -0.472 OA
BRANCH  27  28
ATOM     28  C23 UNL     1       0.943  50.871   6.672  0.00  0.00    +0.206 C 
BRANCH  28  29
ATOM     29  C24 UNL     1       1.174  51.295   8.122  0.00  0.00    +0.051 C 
BRANCH  29  30
ATOM     30  C25 UNL     1       0.176  52.383   8.546  0.00  0.00    +0.051 C 
BRANCH  30  31
ATOM     31  C26 UNL     1       0.859  53.751   8.659  0.00  0.00    +0.206 C 
BRANCH  31  32
ATOM     32  O4  UNL     1       0.054  54.767   8.057  0.00  0.00    -0.475 OA
BRANCH  32  33
ATOM     33  C27 UNL     1      -1.291  54.618   7.674  0.00  0.00    +0.139 A 
ATOM     34  C28 UNL     1      -2.370  54.881   8.543  0.00  0.00    +0.037 A 
ATOM     35  C29 UNL     1      -3.686  54.683   8.115  0.00  0.00    +0.006 A 
ATOM     36  C30 UNL     1      -3.951  54.235   6.811  0.00  0.00    +0.040 A 
ATOM     37  C32 UNL     1      -2.875  53.988   5.943  0.00  0.00    +0.006 A 
ATOM     38  C33 UNL     1      -1.559  54.177   6.372  0.00  0.00    +0.037 A 
BRANCH  36  39
ATOM     39  C31 UNL     1      -5.344  54.030   6.357  0.00  0.00    +0.208 A 
ATOM     40  N3  UNL     1      -6.249  53.234   6.965  0.00  0.00    -0.106 NA
ATOM     41  N4  UNL     1      -7.351  53.325   6.240  0.00  0.00    -0.021 NA
ATOM     42  N5  UNL     1      -7.148  54.145   5.225  0.00  0.00    -0.021 NA
ATOM     43  N6  UNL     1      -5.907  54.601   5.269  0.00  0.00    -0.106 NA
ENDBRANCH  36  39
ENDBRANCH  32  33
ENDBRANCH  31  32
ENDBRANCH  30  31
ENDBRANCH  29  30
ENDBRANCH  28  29
ENDBRANCH  27  28
ENDBRANCH   6  27
TORSDOF 11
ENDMDL
