MODEL 1
REMARK VINA RESULT:      -5.2      0.000      0.000
REMARK  Name = ./data/4u7t_site_bc02/pdb/l0c0.pdb
REMARK  11 active torsions:
REMARK  status: ('A' for Active; 'I' for Inactive)
REMARK    1  A    between atoms: O1_2  and  C2_3
REMARK    2  A    between atoms: C5_6  and  C6_7
REMARK    3  A    between atoms: N2_9  and  C7_10
REMARK    4  A    between atoms: C19_23  and  O3_24
REMARK    5  A    between atoms: O3_24  and  C20_25
REMARK    6  A    between atoms: C20_25  and  C21_26
REMARK    7  A    between atoms: C21_26  and  C22_27
REMARK    8  A    between atoms: C22_27  and  C23_28
REMARK    9  A    between atoms: C23_28  and  O4_29
REMARK   10  A    between atoms: O4_29  and  C24_30
REMARK   11  A    between atoms: C27_33  and  C28_34
REMARK                            x       y       z     vdW  Elec       q    Type
REMARK                         _______ _______ _______ _____ _____    ______ ____
ROOT
ATOM      1  C2  UNL     1       1.698  51.032  -1.002  0.00  0.00    +0.172 A 
ATOM      2  C3  UNL     1       2.863  51.476  -0.350  0.00  0.00    +0.040 A 
ATOM      3  C4  UNL     1       2.822  51.878   0.987  0.00  0.00    +0.005 A 
ATOM      4  C5  UNL     1       1.616  51.850   1.706  0.00  0.00    +0.019 A 
ATOM      5  C18 UNL     1       0.449  51.429   1.040  0.00  0.00    +0.041 A 
ATOM      6  C19 UNL     1       0.485  50.999  -0.300  0.00  0.00    +0.172 A 
ENDROOT
BRANCH   4   7
ATOM      7  C6  UNL     1       1.526  52.221   3.149  0.00  0.00    +0.086 C 
ATOM      8  N1  UNL     1       0.374  52.408   3.712  0.00  0.00    -0.171 NA
ATOM      9  N2  UNL     1       0.539  52.706   5.062  0.00  0.00    -0.222 N 
ATOM     10  C14 UNL     1       1.795  52.715   5.363  0.00  0.00    +0.257 C 
ATOM     11  O2  UNL     1       2.274  52.988   6.644  0.00  0.00    -0.270 OA
ATOM     12  C15 UNL     1       2.645  52.387   4.166  0.00  0.00    +0.110 C 
ATOM     13  C16 UNL     1       3.570  53.570   3.841  0.00  0.00    +0.015 C 
ATOM     14  C17 UNL     1       3.414  51.079   4.424  0.00  0.00    +0.015 C 
BRANCH   9  15
ATOM     15  C7  UNL     1      -0.589  52.934   5.976  0.00  0.00    +0.108 C 
ATOM     16  C8  UNL     1      -1.664  53.780   5.258  0.00  0.00    +0.024 C 
ATOM     17  C9  UNL     1      -3.026  53.803   5.974  0.00  0.00    +0.002 C 
ATOM     18  C10 UNL     1      -3.949  52.669   5.501  0.00  0.00    +0.000 C 
ATOM     19  C11 UNL     1      -3.569  51.289   6.052  0.00  0.00    +0.000 C 
ATOM     20  C12 UNL     1      -2.139  50.855   5.696  0.00  0.00    +0.002 C 
ATOM     21  C13 UNL     1      -1.080  51.581   6.548  0.00  0.00    +0.024 C 
ENDBRANCH   9  15
ENDBRANCH   4   7
BRANCH   1  23
ATOM     22  C1  UNL     1       2.785  50.824  -3.247  0.00  0.00    +0.253 C 
ATOM     23  O1  UNL     1       1.704  50.617  -2.343  0.00  0.00    -0.468 OA
ENDBRANCH   1  23
BRANCH   6  24
ATOM     24  O3  UNL     1      -0.661  50.530  -0.968  0.00  0.00    -0.472 OA
BRANCH  24  25
ATOM     25  C20 UNL     1      -1.980  50.490  -0.418  0.00  0.00    +0.206 C 
BRANCH  25  26
ATOM     26  C21 UNL     1      -3.031  50.842  -1.481  0.00  0.00    +0.051 C 
BRANCH  26  27
ATOM     27  C22 UNL     1      -3.612  52.238  -1.232  0.00  0.00    +0.051 C 
BRANCH  27  28
ATOM     28  C23 UNL     1      -3.156  53.227  -2.311  0.00  0.00    +0.206 C 
BRANCH  28  29
ATOM     29  O4  UNL     1      -2.454  52.543  -3.350  0.00  0.00    -0.475 OA
BRANCH  29  30
ATOM     30  C24 UNL     1      -1.238  52.961  -3.917  0.00  0.00    +0.139 A 
ATOM     31  C25 UNL     1      -0.955  52.836  -5.291  0.00  0.00    +0.037 A 
ATOM     32  C26 UNL     1       0.273  53.267  -5.802  0.00  0.00    +0.006 A 
ATOM     33  C27 UNL     1       1.240  53.836  -4.955  0.00  0.00    +0.040 A 
ATOM     34  C29 UNL     1       0.951  53.964  -3.586  0.00  0.00    +0.006 A 
ATOM     35  C30 UNL     1      -0.277  53.530  -3.076  0.00  0.00    +0.037 A 
BRANCH  33  36
ATOM     36  C28 UNL     1       2.542  54.295  -5.499  0.00  0.00    +0.208 A 
ATOM     37  N3  UNL     1       2.719  54.901  -6.694  0.00  0.00    -0.106 NA
ATOM     38  N4  UNL     1       4.019  55.132  -6.790  0.00  0.00    -0.021 NA
ATOM     39  N5  UNL     1       4.627  54.694  -5.701  0.00  0.00    -0.021 NA
ATOM     40  N6  UNL     1       3.736  54.166  -4.879  0.00  0.00    -0.106 NA
ENDBRANCH  33  36
ENDBRANCH  29  30
ENDBRANCH  28  29
ENDBRANCH  27  28
ENDBRANCH  26  27
ENDBRANCH  25  26
ENDBRANCH  24  25
ENDBRANCH   6  24
TORSDOF 11
ENDMDL
MODEL 2
REMARK VINA RESULT:      -5.1      1.575      2.350
REMARK  Name = ./data/4u7t_site_bc02/pdb/l0c0.pdb
REMARK  11 active torsions:
REMARK  status: ('A' for Active; 'I' for Inactive)
REMARK    1  A    between atoms: O1_2  and  C2_3
REMARK    2  A    between atoms: C5_6  and  C6_7
REMARK    3  A    between atoms: N2_9  and  C7_10
REMARK    4  A    between atoms: C19_23  and  O3_24
REMARK    5  A    between atoms: O3_24  and  C20_25
REMARK    6  A    between atoms: C20_25  and  C21_26
REMARK    7  A    between atoms: C21_26  and  C22_27
REMARK    8  A    between atoms: C22_27  and  C23_28
REMARK    9  A    between atoms: C23_28  and  O4_29
REMARK   10  A    between atoms: O4_29  and  C24_30
REMARK   11  A    between atoms: C27_33  and  C28_34
REMARK                            x       y       z     vdW  Elec       q    Type
REMARK                         _______ _______ _______ _____ _____    ______ ____
ROOT
ATOM      1  C2  UNL     1       0.823  51.317   1.149  0.00  0.00    +0.172 A 
ATOM      2  C3  UNL     1       1.815  51.763   2.042  0.00  0.00    +0.040 A 
ATOM      3  C4  UNL     1       1.470  52.253   3.304  0.00  0.00    +0.005 A 
ATOM      4  C5  UNL     1       0.125  52.314   3.704  0.00  0.00    +0.019 A 
ATOM      5  C18 UNL     1      -0.864  51.890   2.797  0.00  0.00    +0.041 A 
ATOM      6  C19 UNL     1      -0.524  51.371   1.533  0.00  0.00    +0.172 A 
ENDROOT
BRANCH   4   7
ATOM      7  C6  UNL     1      -0.294  52.781   5.058  0.00  0.00    +0.086 C 
ATOM      8  N1  UNL     1      -1.549  52.897   5.358  0.00  0.00    -0.171 NA
ATOM      9  N2  UNL     1      -1.695  53.310   6.679  0.00  0.00    -0.222 N 
ATOM     10  C14 UNL     1      -0.535  53.465   7.225  0.00  0.00    +0.257 C 
ATOM     11  O2  UNL     1      -0.359  53.878   8.545  0.00  0.00    -0.270 OA
ATOM     12  C15 UNL     1       0.571  53.132   6.261  0.00  0.00    +0.110 C 
ATOM     13  C16 UNL     1       1.445  54.373   6.019  0.00  0.00    +0.015 C 
ATOM     14  C17 UNL     1       1.370  51.928   6.789  0.00  0.00    +0.015 C 
BRANCH   9  15
ATOM     15  C7  UNL     1      -3.004  53.495   7.321  0.00  0.00    +0.108 C 
ATOM     16  C8  UNL     1      -3.428  54.975   7.199  0.00  0.00    +0.024 C 
ATOM     17  C9  UNL     1      -4.909  55.233   7.524  0.00  0.00    +0.002 C 
ATOM     18  C10 UNL     1      -5.803  55.127   6.277  0.00  0.00    +0.000 C 
ATOM     19  C11 UNL     1      -6.051  53.686   5.812  0.00  0.00    +0.000 C 
ATOM     20  C12 UNL     1      -4.764  52.914   5.485  0.00  0.00    +0.002 C 
ATOM     21  C13 UNL     1      -4.014  52.466   6.754  0.00  0.00    +0.024 C 
ENDBRANCH   9  15
ENDBRANCH   4   7
BRANCH   1  23
ATOM     22  C1  UNL     1       1.633  51.601  -1.202  0.00  0.00    +0.253 C 
ATOM     23  O1  UNL     1       1.134  50.815  -0.124  0.00  0.00    -0.468 OA
ENDBRANCH   1  23
BRANCH   6  24
ATOM     24  O3  UNL     1      -1.496  50.899   0.631  0.00  0.00    -0.472 OA
BRANCH  24  25
ATOM     25  C20 UNL     1      -2.689  51.594   0.261  0.00  0.00    +0.206 C 
BRANCH  25  26
ATOM     26  C21 UNL     1      -3.626  50.687  -0.550  0.00  0.00    +0.051 C 
BRANCH  26  27
ATOM     27  C22 UNL     1      -3.635  51.095  -2.028  0.00  0.00    +0.051 C 
BRANCH  27  28
ATOM     28  C23 UNL     1      -2.987  52.470  -2.225  0.00  0.00    +0.206 C 
BRANCH  28  29
ATOM     29  O4  UNL     1      -2.476  52.595  -3.553  0.00  0.00    -0.475 OA
BRANCH  29  30
ATOM     30  C24 UNL     1      -1.130  52.826  -3.886  0.00  0.00    +0.139 A 
ATOM     31  C25 UNL     1      -0.333  51.870  -4.544  0.00  0.00    +0.037 A 
ATOM     32  C26 UNL     1       1.002  52.152  -4.850  0.00  0.00    +0.006 A 
ATOM     33  C27 UNL     1       1.566  53.394  -4.510  0.00  0.00    +0.040 A 
ATOM     34  C29 UNL     1       0.765  54.346  -3.858  0.00  0.00    +0.006 A 
ATOM     35  C30 UNL     1      -0.570  54.062  -3.551  0.00  0.00    +0.037 A 
BRANCH  33  36
ATOM     36  C28 UNL     1       2.982  53.693  -4.837  0.00  0.00    +0.208 A 
ATOM     37  N3  UNL     1       4.037  52.904  -4.532  0.00  0.00    -0.106 NA
ATOM     38  N4  UNL     1       5.104  53.539  -4.991  0.00  0.00    -0.021 NA
ATOM     39  N5  UNL     1       4.732  54.673  -5.560  0.00  0.00    -0.021 NA
ATOM     40  N6  UNL     1       3.418  54.798  -5.480  0.00  0.00    -0.106 NA
ENDBRANCH  33  36
ENDBRANCH  29  30
ENDBRANCH  28  29
ENDBRANCH  27  28
ENDBRANCH  26  27
ENDBRANCH  25  26
ENDBRANCH  24  25
ENDBRANCH   6  24
TORSDOF 11
ENDMDL
MODEL 3
REMARK VINA RESULT:      -4.8      3.276      8.945
REMARK  Name = ./data/4u7t_site_bc02/pdb/l0c0.pdb
REMARK  11 active torsions:
REMARK  status: ('A' for Active; 'I' for Inactive)
REMARK    1  A    between atoms: O1_2  and  C2_3
REMARK    2  A    between atoms: C5_6  and  C6_7
REMARK    3  A    between atoms: N2_9  and  C7_10
REMARK    4  A    between atoms: C19_23  and  O3_24
REMARK    5  A    between atoms: O3_24  and  C20_25
REMARK    6  A    between atoms: C20_25  and  C21_26
REMARK    7  A    between atoms: C21_26  and  C22_27
REMARK    8  A    between atoms: C22_27  and  C23_28
REMARK    9  A    between atoms: C23_28  and  O4_29
REMARK   10  A    between atoms: O4_29  and  C24_30
REMARK   11  A    between atoms: C27_33  and  C28_34
REMARK                            x       y       z     vdW  Elec       q    Type
REMARK                         _______ _______ _______ _____ _____    ______ ____
ROOT
ATOM      1  C2  UNL     1       4.478  53.710  -5.295  0.00  0.00    +0.172 A 
ATOM      2  C3  UNL     1       3.506  54.300  -6.124  0.00  0.00    +0.040 A 
ATOM      3  C4  UNL     1       2.196  53.815  -6.143  0.00  0.00    +0.005 A 
ATOM      4  C5  UNL     1       1.825  52.727  -5.335  0.00  0.00    +0.019 A 
ATOM      5  C18 UNL     1       2.809  52.126  -4.528  0.00  0.00    +0.041 A 
ATOM      6  C19 UNL     1       4.125  52.623  -4.485  0.00  0.00    +0.172 A 
ENDROOT
BRANCH   4   7
ATOM      7  C6  UNL     1       0.429  52.202  -5.279  0.00  0.00    +0.086 C 
ATOM      8  N1  UNL     1      -0.031  51.664  -4.194  0.00  0.00    -0.171 NA
ATOM      9  N2  UNL     1      -1.360  51.285  -4.367  0.00  0.00    -0.222 N 
ATOM     10  C14 UNL     1      -1.750  51.574  -5.564  0.00  0.00    +0.257 C 
ATOM     11  O2  UNL     1      -3.034  51.309  -6.036  0.00  0.00    -0.270 OA
ATOM     12  C15 UNL     1      -0.650  52.233  -6.352  0.00  0.00    +0.110 C 
ATOM     13  C16 UNL     1      -0.294  51.372  -7.574  0.00  0.00    +0.015 C 
ATOM     14  C17 UNL     1      -1.073  53.664  -6.729  0.00  0.00    +0.015 C 
BRANCH   9  15
ATOM     15  C7  UNL     1      -2.166  50.678  -3.299  0.00  0.00    +0.108 C 
ATOM     16  C8  UNL     1      -1.275  50.440  -2.060  0.00  0.00    +0.024 C 
ATOM     17  C9  UNL     1      -2.059  50.129  -0.773  0.00  0.00    +0.002 C 
ATOM     18  C10 UNL     1      -2.402  51.401   0.019  0.00  0.00    +0.000 C 
ATOM     19  C11 UNL     1      -3.539  52.227  -0.595  0.00  0.00    +0.000 C 
ATOM     20  C12 UNL     1      -3.263  52.680  -2.037  0.00  0.00    +0.002 C 
ATOM     21  C13 UNL     1      -3.434  51.533  -3.052  0.00  0.00    +0.024 C 
ENDBRANCH   9  15
ENDBRANCH   4   7
BRANCH   1  23
ATOM     22  C1  UNL     1       6.236  55.428  -5.769  0.00  0.00    +0.253 C 
ATOM     23  O1  UNL     1       5.802  54.175  -5.250  0.00  0.00    -0.468 OA
ENDBRANCH   1  23
BRANCH   6  24
ATOM     24  O3  UNL     1       5.110  52.065  -3.648  0.00  0.00    -0.472 OA
BRANCH  24  25
ATOM     25  C20 UNL     1       4.976  50.848  -2.910  0.00  0.00    +0.206 C 
BRANCH  25  26
ATOM     26  C21 UNL     1       4.742  51.130  -1.419  0.00  0.00    +0.051 C 
BRANCH  26  27
ATOM     27  C22 UNL     1       3.465  50.441  -0.928  0.00  0.00    +0.051 C 
BRANCH  27  28
ATOM     28  C23 UNL     1       2.358  51.463  -0.648  0.00  0.00    +0.206 C 
BRANCH  28  29
ATOM     29  O4  UNL     1       1.809  51.260   0.655  0.00  0.00    -0.475 OA
BRANCH  29  30
ATOM     30  C24 UNL     1       2.228  51.920   1.823  0.00  0.00    +0.139 A 
ATOM     31  C25 UNL     1       1.789  51.547   3.108  0.00  0.00    +0.037 A 
ATOM     32  C26 UNL     1       2.237  52.240   4.237  0.00  0.00    +0.006 A 
ATOM     33  C27 UNL     1       3.134  53.314   4.107  0.00  0.00    +0.040 A 
ATOM     34  C29 UNL     1       3.573  53.680   2.823  0.00  0.00    +0.006 A 
ATOM     35  C30 UNL     1       3.123  52.987   1.695  0.00  0.00    +0.037 A 
BRANCH  33  36
ATOM     36  C28 UNL     1       3.611  54.048   5.306  0.00  0.00    +0.208 A 
ATOM     37  N3  UNL     1       3.293  53.744   6.585  0.00  0.00    -0.106 NA
ATOM     38  N4  UNL     1       3.914  54.643   7.331  0.00  0.00    -0.021 NA
ATOM     39  N5  UNL     1       4.593  55.470   6.555  0.00  0.00    -0.021 NA
ATOM     40  N6  UNL     1       4.424  55.127   5.289  0.00  0.00    -0.106 NA
ENDBRANCH  33  36
ENDBRANCH  29  30
ENDBRANCH  28  29
ENDBRANCH  27  28
ENDBRANCH  26  27
ENDBRANCH  25  26
ENDBRANCH  24  25
ENDBRANCH   6  24
TORSDOF 11
ENDMDL
MODEL 4
REMARK VINA RESULT:      -4.3      4.395      8.829
REMARK  Name = ./data/4u7t_site_bc02/pdb/l0c0.pdb
REMARK  11 active torsions:
REMARK  status: ('A' for Active; 'I' for Inactive)
REMARK    1  A    between atoms: O1_2  and  C2_3
REMARK    2  A    between atoms: C5_6  and  C6_7
REMARK    3  A    between atoms: N2_9  and  C7_10
REMARK    4  A    between atoms: C19_23  and  O3_24
REMARK    5  A    between atoms: O3_24  and  C20_25
REMARK    6  A    between atoms: C20_25  and  C21_26
REMARK    7  A    between atoms: C21_26  and  C22_27
REMARK    8  A    between atoms: C22_27  and  C23_28
REMARK    9  A    between atoms: C23_28  and  O4_29
REMARK   10  A    between atoms: O4_29  and  C24_30
REMARK   11  A    between atoms: C27_33  and  C28_34
REMARK                            x       y       z     vdW  Elec       q    Type
REMARK                         _______ _______ _______ _____ _____    ______ ____
ROOT
ATOM      1  C2  UNL     1       4.559  53.670  -6.244  0.00  0.00    +0.172 A 
ATOM      2  C3  UNL     1       3.662  54.377  -5.423  0.00  0.00    +0.040 A 
ATOM      3  C4  UNL     1       2.331  53.969  -5.305  0.00  0.00    +0.005 A 
ATOM      4  C5  UNL     1       1.863  52.846  -6.007  0.00  0.00    +0.019 A 
ATOM      5  C18 UNL     1       2.760  52.159  -6.847  0.00  0.00    +0.041 A 
ATOM      6  C19 UNL     1       4.108  52.549  -6.953  0.00  0.00    +0.172 A 
ENDROOT
BRANCH   4   7
ATOM      7  C6  UNL     1       0.466  52.337  -5.879  0.00  0.00    +0.086 C 
ATOM      8  N1  UNL     1       0.084  51.719  -4.806  0.00  0.00    -0.171 NA
ATOM      9  N2  UNL     1      -1.262  51.374  -4.900  0.00  0.00    -0.222 N 
ATOM     10  C14 UNL     1      -1.741  51.765  -6.034  0.00  0.00    +0.257 C 
ATOM     11  O2  UNL     1      -3.065  51.557  -6.419  0.00  0.00    -0.270 OA
ATOM     12  C15 UNL     1      -0.696  52.471  -6.854  0.00  0.00    +0.110 C 
ATOM     13  C16 UNL     1      -0.457  51.708  -8.166  0.00  0.00    +0.015 C 
ATOM     14  C17 UNL     1      -1.118  53.934  -7.078  0.00  0.00    +0.015 C 
BRANCH   9  15
ATOM     15  C7  UNL     1      -1.992  50.693  -3.822  0.00  0.00    +0.108 C 
ATOM     16  C8  UNL     1      -1.023  50.403  -2.654  0.00  0.00    +0.024 C 
ATOM     17  C9  UNL     1      -1.722  50.005  -1.342  0.00  0.00    +0.002 C 
ATOM     18  C10 UNL     1      -2.035  51.224  -0.459  0.00  0.00    +0.000 C 
ATOM     19  C11 UNL     1      -3.220  52.062  -0.956  0.00  0.00    +0.000 C 
ATOM     20  C12 UNL     1      -3.040  52.600  -2.384  0.00  0.00    +0.002 C 
ATOM     21  C13 UNL     1      -3.255  51.509  -3.450  0.00  0.00    +0.024 C 
ENDBRANCH   9  15
ENDBRANCH   4   7
BRANCH   1  23
ATOM     22  C1  UNL     1       6.360  55.118  -7.208  0.00  0.00    +0.253 C 
ATOM     23  O1  UNL     1       5.904  54.051  -6.382  0.00  0.00    -0.468 OA
ENDBRANCH   1  23
BRANCH   6  24
ATOM     24  O3  UNL     1       5.031  51.846  -7.750  0.00  0.00    -0.472 OA
BRANCH  24  25
ATOM     25  C20 UNL     1       5.193  50.426  -7.772  0.00  0.00    +0.206 C 
BRANCH  25  26
ATOM     26  C21 UNL     1       6.615  50.027  -7.353  0.00  0.00    +0.051 C 
BRANCH  26  27
ATOM     27  C22 UNL     1       7.079  50.848  -6.145  0.00  0.00    +0.051 C 
BRANCH  27  28
ATOM     28  C23 UNL     1       6.738  50.139  -4.831  0.00  0.00    +0.206 C 
BRANCH  28  29
ATOM     29  O4  UNL     1       5.329  50.168  -4.599  0.00  0.00    -0.475 OA
BRANCH  29  30
ATOM     30  C24 UNL     1       4.712  50.568  -3.401  0.00  0.00    +0.139 A 
ATOM     31  C25 UNL     1       5.435  50.817  -2.218  0.00  0.00    +0.037 A 
ATOM     32  C26 UNL     1       4.770  51.212  -1.053  0.00  0.00    +0.006 A 
ATOM     33  C27 UNL     1       3.373  51.371  -1.046  0.00  0.00    +0.040 A 
ATOM     34  C29 UNL     1       2.657  51.126  -2.230  0.00  0.00    +0.006 A 
ATOM     35  C30 UNL     1       3.323  50.729  -3.394  0.00  0.00    +0.037 A 
BRANCH  33  36
ATOM     36  C28 UNL     1       2.669  51.791   0.191  0.00  0.00    +0.208 A 
ATOM     37  N3  UNL     1       1.400  51.459   0.518  0.00  0.00    -0.106 NA
ATOM     38  N4  UNL     1       1.166  52.042   1.683  0.00  0.00    -0.021 NA
ATOM     39  N5  UNL     1       2.242  52.706   2.069  0.00  0.00    -0.021 NA
ATOM     40  N6  UNL     1       3.195  52.570   1.161  0.00  0.00    -0.106 NA
ENDBRANCH  33  36
ENDBRANCH  29  30
ENDBRANCH  28  29
ENDBRANCH  27  28
ENDBRANCH  26  27
ENDBRANCH  25  26
ENDBRANCH  24  25
ENDBRANCH   6  24
TORSDOF 11
ENDMDL
MODEL 5
REMARK VINA RESULT:      -3.9      1.682      2.513
REMARK  Name = ./data/4u7t_site_bc02/pdb/l0c0.pdb
REMARK  11 active torsions:
REMARK  status: ('A' for Active; 'I' for Inactive)
REMARK    1  A    between atoms: O1_2  and  C2_3
REMARK    2  A    between atoms: C5_6  and  C6_7
REMARK    3  A    between atoms: N2_9  and  C7_10
REMARK    4  A    between atoms: C19_23  and  O3_24
REMARK    5  A    between atoms: O3_24  and  C20_25
REMARK    6  A    between atoms: C20_25  and  C21_26
REMARK    7  A    between atoms: C21_26  and  C22_27
REMARK    8  A    between atoms: C22_27  and  C23_28
REMARK    9  A    between atoms: C23_28  and  O4_29
REMARK   10  A    between atoms: O4_29  and  C24_30
REMARK   11  A    between atoms: C27_33  and  C28_34
REMARK                            x       y       z     vdW  Elec       q    Type
REMARK                         _______ _______ _______ _____ _____    ______ ____
ROOT
ATOM      1  C2  UNL     1       2.167  50.502  -0.715  0.00  0.00    +0.172 A 
ATOM      2  C3  UNL     1       3.162  50.185   0.227  0.00  0.00    +0.040 A 
ATOM      3  C4  UNL     1       3.046  50.603   1.555  0.00  0.00    +0.005 A 
ATOM      4  C5  UNL     1       1.934  51.352   1.974  0.00  0.00    +0.019 A 
ATOM      5  C18 UNL     1       0.955  51.688   1.020  0.00  0.00    +0.041 A 
ATOM      6  C19 UNL     1       1.051  51.249  -0.315  0.00  0.00    +0.172 A 
ENDROOT
BRANCH   4   7
ATOM      7  C6  UNL     1       1.735  51.782   3.389  0.00  0.00    +0.086 C 
ATOM      8  N1  UNL     1       0.558  51.755   3.928  0.00  0.00    -0.171 NA
ATOM      9  N2  UNL     1       0.625  52.162   5.259  0.00  0.00    -0.222 N 
ATOM     10  C14 UNL     1       1.844  52.454   5.570  0.00  0.00    +0.257 C 
ATOM     11  O2  UNL     1       2.226  52.898   6.836  0.00  0.00    -0.270 OA
ATOM     12  C15 UNL     1       2.772  52.241   4.405  0.00  0.00    +0.110 C 
ATOM     13  C16 UNL     1       3.434  53.571   4.014  0.00  0.00    +0.015 C 
ATOM     14  C17 UNL     1       3.791  51.142   4.752  0.00  0.00    +0.015 C 
BRANCH   9  15
ATOM     15  C7  UNL     1      -0.546  52.202   6.145  0.00  0.00    +0.108 C 
ATOM     16  C8  UNL     1      -1.075  53.651   6.226  0.00  0.00    +0.024 C 
ATOM     17  C9  UNL     1      -2.481  53.772   6.840  0.00  0.00    +0.002 C 
ATOM     18  C10 UNL     1      -3.588  53.685   5.776  0.00  0.00    +0.000 C 
ATOM     19  C11 UNL     1      -3.830  52.265   5.248  0.00  0.00    +0.000 C 
ATOM     20  C12 UNL     1      -2.584  51.617   4.626  0.00  0.00    +0.002 C 
ATOM     21  C13 UNL     1      -1.580  51.141   5.692  0.00  0.00    +0.024 C 
ENDBRANCH   9  15
ENDBRANCH   4   7
BRANCH   1  23
ATOM     22  C1  UNL     1       3.376  50.319  -2.900  0.00  0.00    +0.253 C 
ATOM     23  O1  UNL     1       2.250  50.093  -2.056  0.00  0.00    -0.468 OA
ENDBRANCH   1  23
BRANCH   6  24
ATOM     24  O3  UNL     1       0.059  51.535  -1.271  0.00  0.00    -0.472 OA
BRANCH  24  25
ATOM     25  C20 UNL     1       0.220  52.401  -2.397  0.00  0.00    +0.206 C 
BRANCH  25  26
ATOM     26  C21 UNL     1      -0.945  52.243  -3.384  0.00  0.00    +0.051 C 
BRANCH  26  27
ATOM     27  C22 UNL     1      -0.491  51.510  -4.651  0.00  0.00    +0.051 C 
BRANCH  27  28
ATOM     28  C23 UNL     1      -0.818  52.324  -5.908  0.00  0.00    +0.206 C 
BRANCH  28  29
ATOM     29  O4  UNL     1       0.324  52.407  -6.761  0.00  0.00    -0.475 OA
BRANCH  29  30
ATOM     30  C24 UNL     1       1.627  52.729  -6.343  0.00  0.00    +0.139 A 
ATOM     31  C25 UNL     1       1.960  53.977  -5.783  0.00  0.00    +0.037 A 
ATOM     32  C26 UNL     1       3.274  54.246  -5.385  0.00  0.00    +0.006 A 
ATOM     33  C27 UNL     1       4.278  53.274  -5.533  0.00  0.00    +0.040 A 
ATOM     34  C29 UNL     1       3.940  52.028  -6.088  0.00  0.00    +0.006 A 
ATOM     35  C30 UNL     1       2.626  51.762  -6.488  0.00  0.00    +0.037 A 
BRANCH  33  36
ATOM     36  C28 UNL     1       5.671  53.559  -5.110  0.00  0.00    +0.208 A 
ATOM     37  N3  UNL     1       6.543  54.351  -5.774  0.00  0.00    -0.106 NA
ATOM     38  N4  UNL     1       7.661  54.326  -5.066  0.00  0.00    -0.021 NA
ATOM     39  N5  UNL     1       7.494  53.556  -4.004  0.00  0.00    -0.021 NA
ATOM     40  N6  UNL     1       6.267  53.063  -4.003  0.00  0.00    -0.106 NA
ENDBRANCH  33  36
ENDBRANCH  29  30
ENDBRANCH  28  29
ENDBRANCH  27  28
ENDBRANCH  26  27
ENDBRANCH  25  26
ENDBRANCH  24  25
ENDBRANCH   6  24
TORSDOF 11
ENDMDL
MODEL 6
REMARK VINA RESULT:      -3.8      2.215      4.084
REMARK  Name = ./data/4u7t_site_bc02/pdb/l0c0.pdb
REMARK  11 active torsions:
REMARK  status: ('A' for Active; 'I' for Inactive)
REMARK    1  A    between atoms: O1_2  and  C2_3
REMARK    2  A    between atoms: C5_6  and  C6_7
REMARK    3  A    between atoms: N2_9  and  C7_10
REMARK    4  A    between atoms: C19_23  and  O3_24
REMARK    5  A    between atoms: O3_24  and  C20_25
REMARK    6  A    between atoms: C20_25  and  C21_26
REMARK    7  A    between atoms: C21_26  and  C22_27
REMARK    8  A    between atoms: C22_27  and  C23_28
REMARK    9  A    between atoms: C23_28  and  O4_29
REMARK   10  A    between atoms: O4_29  and  C24_30
REMARK   11  A    between atoms: C27_33  and  C28_34
REMARK                            x       y       z     vdW  Elec       q    Type
REMARK                         _______ _______ _______ _____ _____    ______ ____
ROOT
ATOM      1  C2  UNL     1       2.273  50.911  -0.728  0.00  0.00    +0.172 A 
ATOM      2  C3  UNL     1       3.163  50.708   0.343  0.00  0.00    +0.040 A 
ATOM      3  C4  UNL     1       2.789  51.028   1.651  0.00  0.00    +0.005 A 
ATOM      4  C5  UNL     1       1.518  51.561   1.921  0.00  0.00    +0.019 A 
ATOM      5  C18 UNL     1       0.642  51.785   0.842  0.00  0.00    +0.041 A 
ATOM      6  C19 UNL     1       1.001  51.444  -0.476  0.00  0.00    +0.172 A 
ENDROOT
BRANCH   4   7
ATOM      7  C6  UNL     1       1.050  51.873   3.303  0.00  0.00    +0.086 C 
ATOM      8  N1  UNL     1       1.786  52.572   4.108  0.00  0.00    -0.171 NA
ATOM      9  N2  UNL     1       1.128  52.765   5.320  0.00  0.00    -0.222 N 
ATOM     10  C14 UNL     1      -0.026  52.185   5.295  0.00  0.00    +0.257 C 
ATOM     11  O2  UNL     1      -0.914  52.200   6.370  0.00  0.00    -0.270 OA
ATOM     12  C15 UNL     1      -0.273  51.518   3.969  0.00  0.00    +0.110 C 
ATOM     13  C16 UNL     1      -0.448  50.005   4.169  0.00  0.00    +0.015 C 
ATOM     14  C17 UNL     1      -1.481  52.177   3.279  0.00  0.00    +0.015 C 
BRANCH   9  15
ATOM     15  C7  UNL     1       1.696  53.551   6.424  0.00  0.00    +0.108 C 
ATOM     16  C8  UNL     1       2.585  52.638   7.297  0.00  0.00    +0.024 C 
ATOM     17  C9  UNL     1       3.498  53.399   8.274  0.00  0.00    +0.002 C 
ATOM     18  C10 UNL     1       4.866  53.727   7.653  0.00  0.00    +0.000 C 
ATOM     19  C11 UNL     1       4.827  54.875   6.637  0.00  0.00    +0.000 C 
ATOM     20  C12 UNL     1       3.870  54.625   5.461  0.00  0.00    +0.002 C 
ATOM     21  C13 UNL     1       2.394  54.814   5.860  0.00  0.00    +0.024 C 
ENDBRANCH   9  15
ENDBRANCH   4   7
BRANCH   1  23
ATOM     22  C1  UNL     1       3.796  51.046  -2.710  0.00  0.00    +0.253 C 
ATOM     23  O1  UNL     1       2.615  50.597  -2.053  0.00  0.00    -0.468 OA
ENDBRANCH   1  23
BRANCH   6  24
ATOM     24  O3  UNL     1       0.122  51.616  -1.561  0.00  0.00    -0.472 OA
BRANCH  24  25
ATOM     25  C20 UNL     1       0.245  52.617  -2.575  0.00  0.00    +0.206 C 
BRANCH  25  26
ATOM     26  C21 UNL     1      -0.917  52.534  -3.575  0.00  0.00    +0.051 C 
BRANCH  26  27
ATOM     27  C22 UNL     1      -0.444  51.962  -4.915  0.00  0.00    +0.051 C 
BRANCH  27  28
ATOM     28  C23 UNL     1      -0.784  52.908  -6.071  0.00  0.00    +0.206 C 
BRANCH  28  29
ATOM     29  O4  UNL     1       0.319  53.011  -6.973  0.00  0.00    -0.475 OA
BRANCH  29  30
ATOM     30  C24 UNL     1       1.667  53.127  -6.596  0.00  0.00    +0.139 A 
ATOM     31  C25 UNL     1       2.135  54.144  -5.742  0.00  0.00    +0.037 A 
ATOM     32  C26 UNL     1       3.489  54.214  -5.399  0.00  0.00    +0.006 A 
ATOM     33  C27 UNL     1       4.402  53.268  -5.897  0.00  0.00    +0.040 A 
ATOM     34  C29 UNL     1       3.930  52.251  -6.745  0.00  0.00    +0.006 A 
ATOM     35  C30 UNL     1       2.575  52.185  -7.088  0.00  0.00    +0.037 A 
BRANCH  33  36
ATOM     36  C28 UNL     1       5.838  53.342  -5.531  0.00  0.00    +0.208 A 
ATOM     37  N3  UNL     1       6.867  53.345  -6.407  0.00  0.00    -0.106 NA
ATOM     38  N4  UNL     1       7.964  53.412  -5.671  0.00  0.00    -0.021 NA
ATOM     39  N5  UNL     1       7.636  53.453  -4.391  0.00  0.00    -0.021 NA
ATOM     40  N6  UNL     1       6.319  53.410  -4.271  0.00  0.00    -0.106 NA
ENDBRANCH  33  36
ENDBRANCH  29  30
ENDBRANCH  28  29
ENDBRANCH  27  28
ENDBRANCH  26  27
ENDBRANCH  25  26
ENDBRANCH  24  25
ENDBRANCH   6  24
TORSDOF 11
ENDMDL
MODEL 7
REMARK VINA RESULT:      -3.7      4.841      5.969
REMARK  Name = ./data/4u7t_site_bc02/pdb/l0c0.pdb
REMARK  11 active torsions:
REMARK  status: ('A' for Active; 'I' for Inactive)
REMARK    1  A    between atoms: O1_2  and  C2_3
REMARK    2  A    between atoms: C5_6  and  C6_7
REMARK    3  A    between atoms: N2_9  and  C7_10
REMARK    4  A    between atoms: C19_23  and  O3_24
REMARK    5  A    between atoms: O3_24  and  C20_25
REMARK    6  A    between atoms: C20_25  and  C21_26
REMARK    7  A    between atoms: C21_26  and  C22_27
REMARK    8  A    between atoms: C22_27  and  C23_28
REMARK    9  A    between atoms: C23_28  and  O4_29
REMARK   10  A    between atoms: O4_29  and  C24_30
REMARK   11  A    between atoms: C27_33  and  C28_34
REMARK                            x       y       z     vdW  Elec       q    Type
REMARK                         _______ _______ _______ _____ _____    ______ ____
ROOT
ATOM      1  C2  UNL     1       1.843  50.842   0.032  0.00  0.00    +0.172 A 
ATOM      2  C3  UNL     1       2.144  50.515   1.367  0.00  0.00    +0.040 A 
ATOM      3  C4  UNL     1       1.180  50.652   2.369  0.00  0.00    +0.005 A 
ATOM      4  C5  UNL     1      -0.108  51.121   2.062  0.00  0.00    +0.019 A 
ATOM      5  C18 UNL     1      -0.394  51.470   0.728  0.00  0.00    +0.041 A 
ATOM      6  C19 UNL     1       0.564  51.313  -0.291  0.00  0.00    +0.172 A 
ENDROOT
BRANCH   4   7
ATOM      7  C6  UNL     1      -1.190  51.238   3.083  0.00  0.00    +0.086 C 
ATOM      8  N1  UNL     1      -2.368  50.747   2.857  0.00  0.00    -0.171 NA
ATOM      9  N2  UNL     1      -3.193  50.942   3.961  0.00  0.00    -0.222 N 
ATOM     10  C14 UNL     1      -2.548  51.562   4.892  0.00  0.00    +0.257 C 
ATOM     11  O2  UNL     1      -3.114  51.904   6.120  0.00  0.00    -0.270 OA
ATOM     12  C15 UNL     1      -1.130  51.846   4.477  0.00  0.00    +0.110 C 
ATOM     13  C16 UNL     1      -0.885  53.363   4.451  0.00  0.00    +0.015 C 
ATOM     14  C17 UNL     1      -0.161  51.098   5.410  0.00  0.00    +0.015 C 
BRANCH   9  15
ATOM     15  C7  UNL     1      -4.580  50.461   4.020  0.00  0.00    +0.108 C 
ATOM     16  C8  UNL     1      -5.466  51.537   4.686  0.00  0.00    +0.024 C 
ATOM     17  C9  UNL     1      -6.977  51.308   4.505  0.00  0.00    +0.002 C 
ATOM     18  C10 UNL     1      -7.519  51.992   3.240  0.00  0.00    +0.000 C 
ATOM     19  C11 UNL     1      -7.150  51.271   1.937  0.00  0.00    +0.000 C 
ATOM     20  C12 UNL     1      -5.637  51.115   1.726  0.00  0.00    +0.002 C 
ATOM     21  C13 UNL     1      -5.035  50.006   2.611  0.00  0.00    +0.024 C 
ENDBRANCH   9  15
ENDBRANCH   4   7
BRANCH   1  23
ATOM     22  C1  UNL     1       4.167  51.048  -0.878  0.00  0.00    +0.253 C 
ATOM     23  O1  UNL     1       2.787  50.713  -0.999  0.00  0.00    -0.468 OA
ENDBRANCH   1  23
BRANCH   6  24
ATOM     24  O3  UNL     1       0.281  51.612  -1.637  0.00  0.00    -0.472 OA
BRANCH  24  25
ATOM     25  C20 UNL     1       0.935  52.616  -2.417  0.00  0.00    +0.206 C 
BRANCH  25  26
ATOM     26  C21 UNL     1      -0.084  53.458  -3.198  0.00  0.00    +0.051 C 
BRANCH  26  27
ATOM     27  C22 UNL     1       0.476  54.852  -3.498  0.00  0.00    +0.051 C 
BRANCH  27  28
ATOM     28  C23 UNL     1      -0.454  55.947  -2.967  0.00  0.00    +0.206 C 
BRANCH  28  29
ATOM     29  O4  UNL     1       0.203  57.216  -2.991  0.00  0.00    -0.475 OA
BRANCH  29  30
ATOM     30  C24 UNL     1      -0.005  58.254  -2.066  0.00  0.00    +0.139 A 
ATOM     31  C25 UNL     1      -0.212  59.591  -2.455  0.00  0.00    +0.037 A 
ATOM     32  C26 UNL     1      -0.413  60.585  -1.493  0.00  0.00    +0.006 A 
ATOM     33  C27 UNL     1      -0.417  60.264  -0.124  0.00  0.00    +0.040 A 
ATOM     34  C29 UNL     1      -0.215  58.927   0.260  0.00  0.00    +0.006 A 
ATOM     35  C30 UNL     1      -0.012  57.934  -0.705  0.00  0.00    +0.037 A 
BRANCH  33  36
ATOM     36  C28 UNL     1      -0.631  61.319   0.897  0.00  0.00    +0.208 A 
ATOM     37  N3  UNL     1       0.347  61.969   1.566  0.00  0.00    -0.106 NA
ATOM     38  N4  UNL     1      -0.272  62.812   2.377  0.00  0.00    -0.021 NA
ATOM     39  N5  UNL     1      -1.580  62.697   2.219  0.00  0.00    -0.021 NA
ATOM     40  N6  UNL     1      -1.836  61.776   1.305  0.00  0.00    -0.106 NA
ENDBRANCH  33  36
ENDBRANCH  29  30
ENDBRANCH  28  29
ENDBRANCH  27  28
ENDBRANCH  26  27
ENDBRANCH  25  26
ENDBRANCH  24  25
ENDBRANCH   6  24
TORSDOF 11
ENDMDL
