MODEL 1
REMARK VINA RESULT:      -5.2      0.000      0.000
REMARK  Name = ./data/4u7t_site_bc02/pdb/l0c0.pdb
REMARK  11 active torsions:
REMARK  status: ('A' for Active; 'I' for Inactive)
REMARK    1  A    between atoms: O1_2  and  C2_3
REMARK    2  A    between atoms: C5_6  and  C6_7
REMARK    3  A    between atoms: N2_9  and  C7_10
REMARK    4  A    between atoms: C19_23  and  O3_24
REMARK    5  A    between atoms: O3_24  and  C20_25
REMARK    6  A    between atoms: C20_25  and  C21_26
REMARK    7  A    between atoms: C21_26  and  C22_27
REMARK    8  A    between atoms: C22_27  and  C23_28
REMARK    9  A    between atoms: C23_28  and  O4_29
REMARK   10  A    between atoms: O4_29  and  C24_30
REMARK   11  A    between atoms: C27_33  and  C28_34
REMARK                            x       y       z     vdW  Elec       q    Type
REMARK                         _______ _______ _______ _____ _____    ______ ____
ROOT
ATOM      1  C2  UNL     1      40.389  77.889   3.795  0.00  0.00    +0.172 A 
ATOM      2  C3  UNL     1      39.810  79.160   3.972  0.00  0.00    +0.040 A 
ATOM      3  C4  UNL     1      38.982  79.708   2.990  0.00  0.00    +0.005 A 
ATOM      4  C5  UNL     1      38.713  79.003   1.805  0.00  0.00    +0.019 A 
ATOM      5  C18 UNL     1      39.316  77.744   1.624  0.00  0.00    +0.041 A 
ATOM      6  C19 UNL     1      40.133  77.173   2.618  0.00  0.00    +0.172 A 
ENDROOT
BRANCH   4   7
ATOM      7  C6  UNL     1      37.797  79.520   0.747  0.00  0.00    +0.086 C 
ATOM      8  N1  UNL     1      38.270  80.076  -0.323  0.00  0.00    -0.171 NA
ATOM      9  N2  UNL     1      37.234  80.443  -1.177  0.00  0.00    -0.222 N 
ATOM     10  C14 UNL     1      36.096  80.128  -0.653  0.00  0.00    +0.257 C 
ATOM     11  O2  UNL     1      34.872  80.376  -1.272  0.00  0.00    -0.270 OA
ATOM     12  C15 UNL     1      36.277  79.462   0.684  0.00  0.00    +0.110 C 
ATOM     13  C16 UNL     1      35.607  80.302   1.783  0.00  0.00    +0.015 C 
ATOM     14  C17 UNL     1      35.740  78.021   0.618  0.00  0.00    +0.015 C 
BRANCH   9  15
ATOM     15  C7  UNL     1      37.458  81.065  -2.489  0.00  0.00    +0.108 C 
ATOM     16  C8  UNL     1      36.983  80.101  -3.599  0.00  0.00    +0.024 C 
ATOM     17  C9  UNL     1      36.848  80.757  -4.984  0.00  0.00    +0.002 C 
ATOM     18  C10 UNL     1      35.442  81.333  -5.219  0.00  0.00    +0.000 C 
ATOM     19  C11 UNL     1      35.172  82.639  -4.462  0.00  0.00    +0.000 C 
ATOM     20  C12 UNL     1      35.337  82.516  -2.940  0.00  0.00    +0.002 C 
ATOM     21  C13 UNL     1      36.818  82.475  -2.515  0.00  0.00    +0.024 C 
ENDBRANCH   9  15
ENDBRANCH   4   7
BRANCH   1  23
ATOM     22  C1  UNL     1      40.769  76.458   5.813  0.00  0.00    +0.253 C 
ATOM     23  O1  UNL     1      41.222  77.307   4.763  0.00  0.00    -0.468 OA
ENDBRANCH   1  23
BRANCH   6  24
ATOM     24  O3  UNL     1      40.706  75.896   2.475  0.00  0.00    -0.472 OA
BRANCH  24  25
ATOM     25  C20 UNL     1      40.148  74.819   1.718  0.00  0.00    +0.206 C 
BRANCH  25  26
ATOM     26  C21 UNL     1      41.239  74.069   0.939  0.00  0.00    +0.051 C 
BRANCH  26  27
ATOM     27  C22 UNL     1      40.980  74.141  -0.569  0.00  0.00    +0.051 C 
BRANCH  27  28
ATOM     28  C23 UNL     1      40.781  75.589  -1.028  0.00  0.00    +0.206 C 
BRANCH  28  29
ATOM     29  O4  UNL     1      39.477  75.762  -1.586  0.00  0.00    -0.475 OA
BRANCH  29  30
ATOM     30  C24 UNL     1      39.207  76.216  -2.888  0.00  0.00    +0.139 A 
ATOM     31  C25 UNL     1      39.799  77.373  -3.430  0.00  0.00    +0.037 A 
ATOM     32  C26 UNL     1      39.493  77.781  -4.732  0.00  0.00    +0.006 A 
ATOM     33  C27 UNL     1      38.594  77.042  -5.520  0.00  0.00    +0.040 A 
ATOM     34  C29 UNL     1      38.008  75.885  -4.977  0.00  0.00    +0.006 A 
ATOM     35  C30 UNL     1      38.315  75.479  -3.673  0.00  0.00    +0.037 A 
BRANCH  33  36
ATOM     36  C28 UNL     1      38.270  77.475  -6.902  0.00  0.00    +0.208 A 
ATOM     37  N3  UNL     1      37.232  77.022  -7.639  0.00  0.00    -0.106 NA
ATOM     38  N4  UNL     1      37.314  77.653  -8.800  0.00  0.00    -0.021 NA
ATOM     39  N5  UNL     1      38.356  78.467  -8.787  0.00  0.00    -0.021 NA
ATOM     40  N6  UNL     1      38.972  78.378  -7.621  0.00  0.00    -0.106 NA
ENDBRANCH  33  36
ENDBRANCH  29  30
ENDBRANCH  28  29
ENDBRANCH  27  28
ENDBRANCH  26  27
ENDBRANCH  25  26
ENDBRANCH  24  25
ENDBRANCH   6  24
TORSDOF 11
ENDMDL
MODEL 2
REMARK VINA RESULT:      -4.7      2.880      8.203
REMARK  Name = ./data/4u7t_site_bc02/pdb/l0c0.pdb
REMARK  11 active torsions:
REMARK  status: ('A' for Active; 'I' for Inactive)
REMARK    1  A    between atoms: O1_2  and  C2_3
REMARK    2  A    between atoms: C5_6  and  C6_7
REMARK    3  A    between atoms: N2_9  and  C7_10
REMARK    4  A    between atoms: C19_23  and  O3_24
REMARK    5  A    between atoms: O3_24  and  C20_25
REMARK    6  A    between atoms: C20_25  and  C21_26
REMARK    7  A    between atoms: C21_26  and  C22_27
REMARK    8  A    between atoms: C22_27  and  C23_28
REMARK    9  A    between atoms: C23_28  and  O4_29
REMARK   10  A    between atoms: O4_29  and  C24_30
REMARK   11  A    between atoms: C27_33  and  C28_34
REMARK                            x       y       z     vdW  Elec       q    Type
REMARK                         _______ _______ _______ _____ _____    ______ ____
ROOT
ATOM      1  C2  UNL     1      36.140  81.811  -3.732  0.00  0.00    +0.172 A 
ATOM      2  C3  UNL     1      36.380  81.209  -4.982  0.00  0.00    +0.040 A 
ATOM      3  C4  UNL     1      37.264  80.134  -5.097  0.00  0.00    +0.005 A 
ATOM      4  C5  UNL     1      37.932  79.633  -3.967  0.00  0.00    +0.019 A 
ATOM      5  C18 UNL     1      37.707  80.256  -2.725  0.00  0.00    +0.041 A 
ATOM      6  C19 UNL     1      36.800  81.325  -2.595  0.00  0.00    +0.172 A 
ENDROOT
BRANCH   4   7
ATOM      7  C6  UNL     1      38.847  78.456  -4.025  0.00  0.00    +0.086 C 
ATOM      8  N1  UNL     1      39.438  78.132  -5.132  0.00  0.00    -0.171 NA
ATOM      9  N2  UNL     1      40.266  77.030  -4.934  0.00  0.00    -0.222 N 
ATOM     10  C14 UNL     1      40.202  76.644  -3.703  0.00  0.00    +0.257 C 
ATOM     11  O2  UNL     1      40.918  75.557  -3.203  0.00  0.00    -0.270 OA
ATOM     12  C15 UNL     1      39.275  77.519  -2.904  0.00  0.00    +0.110 C 
ATOM     13  C16 UNL     1      38.109  76.683  -2.354  0.00  0.00    +0.015 C 
ATOM     14  C17 UNL     1      40.071  78.238  -1.800  0.00  0.00    +0.015 C 
BRANCH   9  15
ATOM     15  C7  UNL     1      41.097  76.451  -5.998  0.00  0.00    +0.108 C 
ATOM     16  C8  UNL     1      40.688  74.978  -6.221  0.00  0.00    +0.024 C 
ATOM     17  C9  UNL     1      41.237  74.363  -7.520  0.00  0.00    +0.002 C 
ATOM     18  C10 UNL     1      40.276  74.556  -8.704  0.00  0.00    +0.000 C 
ATOM     19  C11 UNL     1      40.261  75.983  -9.266  0.00  0.00    +0.000 C 
ATOM     20  C12 UNL     1      39.884  77.051  -8.228  0.00  0.00    +0.002 C 
ATOM     21  C13 UNL     1      41.040  77.354  -7.255  0.00  0.00    +0.024 C 
ENDBRANCH   9  15
ENDBRANCH   4   7
BRANCH   1  23
ATOM     22  C1  UNL     1      35.425  84.165  -4.194  0.00  0.00    +0.253 C 
ATOM     23  O1  UNL     1      35.256  82.890  -3.580  0.00  0.00    -0.468 OA
ENDBRANCH   1  23
BRANCH   6  24
ATOM     24  O3  UNL     1      36.526  81.929  -1.354  0.00  0.00    -0.472 OA
BRANCH  24  25
ATOM     25  C20 UNL     1      35.400  81.638  -0.523  0.00  0.00    +0.206 C 
BRANCH  25  26
ATOM     26  C21 UNL     1      35.375  82.552   0.711  0.00  0.00    +0.051 C 
BRANCH  26  27
ATOM     27  C22 UNL     1      36.587  82.287   1.611  0.00  0.00    +0.051 C 
BRANCH  27  28
ATOM     28  C23 UNL     1      36.344  81.080   2.523  0.00  0.00    +0.206 C 
BRANCH  28  29
ATOM     29  O4  UNL     1      37.576  80.618   3.078  0.00  0.00    -0.475 OA
BRANCH  29  30
ATOM     30  C24 UNL     1      38.239  79.435   2.709  0.00  0.00    +0.139 A 
ATOM     31  C25 UNL     1      39.202  78.813   3.527  0.00  0.00    +0.037 A 
ATOM     32  C26 UNL     1      39.833  77.637   3.109  0.00  0.00    +0.006 A 
ATOM     33  C27 UNL     1      39.512  77.055   1.870  0.00  0.00    +0.040 A 
ATOM     34  C29 UNL     1      38.546  77.676   1.060  0.00  0.00    +0.006 A 
ATOM     35  C30 UNL     1      37.918  78.854   1.478  0.00  0.00    +0.037 A 
BRANCH  33  36
ATOM     36  C28 UNL     1      40.180  75.806   1.429  0.00  0.00    +0.208 A 
ATOM     37  N3  UNL     1      39.984  75.194   0.239  0.00  0.00    -0.106 NA
ATOM     38  N4  UNL     1      40.759  74.122   0.256  0.00  0.00    -0.021 NA
ATOM     39  N5  UNL     1      41.414  74.067   1.404  0.00  0.00    -0.021 NA
ATOM     40  N6  UNL     1      41.074  75.101   2.156  0.00  0.00    -0.106 NA
ENDBRANCH  33  36
ENDBRANCH  29  30
ENDBRANCH  28  29
ENDBRANCH  27  28
ENDBRANCH  26  27
ENDBRANCH  25  26
ENDBRANCH  24  25
ENDBRANCH   6  24
TORSDOF 11
ENDMDL
MODEL 3
REMARK VINA RESULT:      -4.2      1.474      2.433
REMARK  Name = ./data/4u7t_site_bc02/pdb/l0c0.pdb
REMARK  11 active torsions:
REMARK  status: ('A' for Active; 'I' for Inactive)
REMARK    1  A    between atoms: O1_2  and  C2_3
REMARK    2  A    between atoms: C5_6  and  C6_7
REMARK    3  A    between atoms: N2_9  and  C7_10
REMARK    4  A    between atoms: C19_23  and  O3_24
REMARK    5  A    between atoms: O3_24  and  C20_25
REMARK    6  A    between atoms: C20_25  and  C21_26
REMARK    7  A    between atoms: C21_26  and  C22_27
REMARK    8  A    between atoms: C22_27  and  C23_28
REMARK    9  A    between atoms: C23_28  and  O4_29
REMARK   10  A    between atoms: O4_29  and  C24_30
REMARK   11  A    between atoms: C27_33  and  C28_34
REMARK                            x       y       z     vdW  Elec       q    Type
REMARK                         _______ _______ _______ _____ _____    ______ ____
ROOT
ATOM      1  C2  UNL     1      40.048  79.035   2.859  0.00  0.00    +0.172 A 
ATOM      2  C3  UNL     1      39.278  80.209   2.764  0.00  0.00    +0.040 A 
ATOM      3  C4  UNL     1      38.600  80.523   1.583  0.00  0.00    +0.005 A 
ATOM      4  C5  UNL     1      38.676  79.673   0.468  0.00  0.00    +0.019 A 
ATOM      5  C18 UNL     1      39.469  78.513   0.562  0.00  0.00    +0.041 A 
ATOM      6  C19 UNL     1      40.136  78.176   1.755  0.00  0.00    +0.172 A 
ENDROOT
BRANCH   4   7
ATOM      7  C6  UNL     1      37.932  79.934  -0.799  0.00  0.00    +0.086 C 
ATOM      8  N1  UNL     1      36.912  80.732  -0.814  0.00  0.00    -0.171 NA
ATOM      9  N2  UNL     1      36.407  80.848  -2.106  0.00  0.00    -0.222 N 
ATOM     10  C14 UNL     1      37.099  80.122  -2.919  0.00  0.00    +0.257 C 
ATOM     11  O2  UNL     1      36.830  80.030  -4.284  0.00  0.00    -0.270 OA
ATOM     12  C15 UNL     1      38.217  79.415  -2.202  0.00  0.00    +0.110 C 
ATOM     13  C16 UNL     1      38.035  77.894  -2.318  0.00  0.00    +0.015 C 
ATOM     14  C17 UNL     1      39.570  79.902  -2.752  0.00  0.00    +0.015 C 
BRANCH   9  15
ATOM     15  C7  UNL     1      35.270  81.714  -2.447  0.00  0.00    +0.108 C 
ATOM     16  C8  UNL     1      35.520  83.131  -1.885  0.00  0.00    +0.024 C 
ATOM     17  C9  UNL     1      34.579  84.207  -2.455  0.00  0.00    +0.002 C 
ATOM     18  C10 UNL     1      35.154  84.870  -3.717  0.00  0.00    +0.000 C 
ATOM     19  C11 UNL     1      35.073  83.991  -4.971  0.00  0.00    +0.000 C 
ATOM     20  C12 UNL     1      35.795  82.642  -4.827  0.00  0.00    +0.002 C 
ATOM     21  C13 UNL     1      34.997  81.642  -3.971  0.00  0.00    +0.024 C 
ENDBRANCH   9  15
ENDBRANCH   4   7
BRANCH   1  23
ATOM     22  C1  UNL     1      40.228  77.827   5.044  0.00  0.00    +0.253 C 
ATOM     23  O1  UNL     1      40.739  78.688   4.031  0.00  0.00    -0.468 OA
ENDBRANCH   1  23
BRANCH   6  24
ATOM     24  O3  UNL     1      40.894  76.998   1.883  0.00  0.00    -0.472 OA
BRANCH  24  25
ATOM     25  C20 UNL     1      40.393  75.669   1.717  0.00  0.00    +0.206 C 
BRANCH  25  26
ATOM     26  C21 UNL     1      41.412  74.783   0.987  0.00  0.00    +0.051 C 
BRANCH  26  27
ATOM     27  C22 UNL     1      41.415  75.080  -0.516  0.00  0.00    +0.051 C 
BRANCH  27  28
ATOM     28  C23 UNL     1      40.039  74.815  -1.135  0.00  0.00    +0.206 C 
BRANCH  28  29
ATOM     29  O4  UNL     1      40.175  74.379  -2.488  0.00  0.00    -0.475 OA
BRANCH  29  30
ATOM     30  C24 UNL     1      39.696  75.070  -3.615  0.00  0.00    +0.139 A 
ATOM     31  C25 UNL     1      38.447  74.795  -4.203  0.00  0.00    +0.037 A 
ATOM     32  C26 UNL     1      38.019  75.512  -5.325  0.00  0.00    +0.006 A 
ATOM     33  C27 UNL     1      38.827  76.521  -5.878  0.00  0.00    +0.040 A 
ATOM     34  C29 UNL     1      40.070  76.796  -5.284  0.00  0.00    +0.006 A 
ATOM     35  C30 UNL     1      40.497  76.076  -4.163  0.00  0.00    +0.037 A 
BRANCH  33  36
ATOM     36  C28 UNL     1      38.372  77.283  -7.067  0.00  0.00    +0.208 A 
ATOM     37  N3  UNL     1      39.044  78.305  -7.644  0.00  0.00    -0.106 NA
ATOM     38  N4  UNL     1      38.291  78.702  -8.657  0.00  0.00    -0.021 NA
ATOM     39  N5  UNL     1      37.199  77.959  -8.715  0.00  0.00    -0.021 NA
ATOM     40  N6  UNL     1      37.219  77.068  -7.738  0.00  0.00    -0.106 NA
ENDBRANCH  33  36
ENDBRANCH  29  30
ENDBRANCH  28  29
ENDBRANCH  27  28
ENDBRANCH  26  27
ENDBRANCH  25  26
ENDBRANCH  24  25
ENDBRANCH   6  24
TORSDOF 11
ENDMDL
MODEL 4
REMARK VINA RESULT:      -2.7      3.459      9.050
REMARK  Name = ./data/4u7t_site_bc02/pdb/l0c0.pdb
REMARK  11 active torsions:
REMARK  status: ('A' for Active; 'I' for Inactive)
REMARK    1  A    between atoms: O1_2  and  C2_3
REMARK    2  A    between atoms: C5_6  and  C6_7
REMARK    3  A    between atoms: N2_9  and  C7_10
REMARK    4  A    between atoms: C19_23  and  O3_24
REMARK    5  A    between atoms: O3_24  and  C20_25
REMARK    6  A    between atoms: C20_25  and  C21_26
REMARK    7  A    between atoms: C21_26  and  C22_27
REMARK    8  A    between atoms: C22_27  and  C23_28
REMARK    9  A    between atoms: C23_28  and  O4_29
REMARK   10  A    between atoms: O4_29  and  C24_30
REMARK   11  A    between atoms: C27_33  and  C28_34
REMARK                            x       y       z     vdW  Elec       q    Type
REMARK                         _______ _______ _______ _____ _____    ______ ____
ROOT
ATOM      1  C2  UNL     1      36.111  81.863  -3.691  0.00  0.00    +0.172 A 
ATOM      2  C3  UNL     1      36.293  81.236  -4.937  0.00  0.00    +0.040 A 
ATOM      3  C4  UNL     1      37.162  80.150  -5.068  0.00  0.00    +0.005 A 
ATOM      4  C5  UNL     1      37.873  79.665  -3.958  0.00  0.00    +0.019 A 
ATOM      5  C18 UNL     1      37.705  80.313  -2.720  0.00  0.00    +0.041 A 
ATOM      6  C19 UNL     1      36.813  81.393  -2.573  0.00  0.00    +0.172 A 
ENDROOT
BRANCH   4   7
ATOM      7  C6  UNL     1      38.774  78.478  -4.031  0.00  0.00    +0.086 C 
ATOM      8  N1  UNL     1      39.401  78.191  -5.128  0.00  0.00    -0.171 NA
ATOM      9  N2  UNL     1      40.207  77.070  -4.946  0.00  0.00    -0.222 N 
ATOM     10  C14 UNL     1      40.093  76.635  -3.735  0.00  0.00    +0.257 C 
ATOM     11  O2  UNL     1      40.777  75.519  -3.255  0.00  0.00    -0.270 OA
ATOM     12  C15 UNL     1      39.149  77.490  -2.935  0.00  0.00    +0.110 C 
ATOM     13  C16 UNL     1      37.953  76.649  -2.463  0.00  0.00    +0.015 C 
ATOM     14  C17 UNL     1      39.912  78.153  -1.774  0.00  0.00    +0.015 C 
BRANCH   9  15
ATOM     15  C7  UNL     1      41.069  76.523  -6.002  0.00  0.00    +0.108 C 
ATOM     16  C8  UNL     1      40.798  75.009  -6.149  0.00  0.00    +0.024 C 
ATOM     17  C9  UNL     1      41.379  74.389  -7.432  0.00  0.00    +0.002 C 
ATOM     18  C10 UNL     1      40.381  74.434  -8.601  0.00  0.00    +0.000 C 
ATOM     19  C11 UNL     1      40.220  75.826  -9.226  0.00  0.00    +0.000 C 
ATOM     20  C12 UNL     1      39.762  76.901  -8.228  0.00  0.00    +0.002 C 
ATOM     21  C13 UNL     1      40.902  77.357  -7.297  0.00  0.00    +0.024 C 
ENDBRANCH   9  15
ENDBRANCH   4   7
BRANCH   1  23
ATOM     22  C1  UNL     1      35.666  84.301  -3.339  0.00  0.00    +0.253 C 
ATOM     23  O1  UNL     1      35.243  82.954  -3.523  0.00  0.00    -0.468 OA
ENDBRANCH   1  23
BRANCH   6  24
ATOM     24  O3  UNL     1      36.597  82.023  -1.334  0.00  0.00    -0.472 OA
BRANCH  24  25
ATOM     25  C20 UNL     1      35.509  81.754  -0.447  0.00  0.00    +0.206 C 
BRANCH  25  26
ATOM     26  C21 UNL     1      35.758  82.374   0.935  0.00  0.00    +0.051 C 
BRANCH  26  27
ATOM     27  C22 UNL     1      37.100  81.908   1.509  0.00  0.00    +0.051 C 
BRANCH  27  28
ATOM     28  C23 UNL     1      37.065  80.416   1.856  0.00  0.00    +0.206 C 
BRANCH  28  29
ATOM     29  O4  UNL     1      38.356  79.832   1.677  0.00  0.00    -0.475 OA
BRANCH  29  30
ATOM     30  C24 UNL     1      38.923  78.848   2.505  0.00  0.00    +0.139 A 
ATOM     31  C25 UNL     1      39.940  77.977   2.069  0.00  0.00    +0.037 A 
ATOM     32  C26 UNL     1      40.467  77.015   2.936  0.00  0.00    +0.006 A 
ATOM     33  C27 UNL     1      39.996  76.906   4.255  0.00  0.00    +0.040 A 
ATOM     34  C29 UNL     1      38.985  77.781   4.688  0.00  0.00    +0.006 A 
ATOM     35  C30 UNL     1      38.456  78.742   3.819  0.00  0.00    +0.037 A 
BRANCH  33  36
ATOM     36  C28 UNL     1      40.558  75.886   5.175  0.00  0.00    +0.208 A 
ATOM     37  N3  UNL     1      40.767  76.060   6.499  0.00  0.00    -0.106 NA
ATOM     38  N4  UNL     1      41.282  74.920   6.932  0.00  0.00    -0.021 NA
ATOM     39  N5  UNL     1      41.386  74.071   5.925  0.00  0.00    -0.021 NA
ATOM     40  N6  UNL     1      40.945  74.642   4.817  0.00  0.00    -0.106 NA
ENDBRANCH  33  36
ENDBRANCH  29  30
ENDBRANCH  28  29
ENDBRANCH  27  28
ENDBRANCH  26  27
ENDBRANCH  25  26
ENDBRANCH  24  25
ENDBRANCH   6  24
TORSDOF 11
ENDMDL
