MODEL 1
REMARK VINA RESULT:      -5.3      0.000      0.000
REMARK  Name = ./data/4u7t_site_bc02/pdb/l1c0.pdb
REMARK  11 active torsions:
REMARK  status: ('A' for Active; 'I' for Inactive)
REMARK    1  A    between atoms: O1_2  and  C2_3
REMARK    2  A    between atoms: C5_6  and  C6_7
REMARK    3  A    between atoms: N2_9  and  C7_10
REMARK    4  A    between atoms: C22_26  and  O3_27
REMARK    5  A    between atoms: O3_27  and  C23_28
REMARK    6  A    between atoms: C23_28  and  C24_29
REMARK    7  A    between atoms: C24_29  and  C25_30
REMARK    8  A    between atoms: C25_30  and  C26_31
REMARK    9  A    between atoms: C26_31  and  O4_32
REMARK   10  A    between atoms: O4_32  and  C27_33
REMARK   11  A    between atoms: C30_36  and  C31_37
REMARK                            x       y       z     vdW  Elec       q    Type
REMARK                         _______ _______ _______ _____ _____    ______ ____
ROOT
ATOM      1  C2  UNL     1      38.377  75.724   2.521  0.00  0.00    +0.172 A 
ATOM      2  C3  UNL     1      38.211  74.806   1.472  0.00  0.00    +0.040 A 
ATOM      3  C4  UNL     1      38.418  75.199   0.149  0.00  0.00    +0.005 A 
ATOM      4  C5  UNL     1      38.803  76.515  -0.162  0.00  0.00    +0.018 A 
ATOM      5  C21 UNL     1      38.981  77.428   0.895  0.00  0.00    +0.041 A 
ATOM      6  C22 UNL     1      38.749  77.045   2.233  0.00  0.00    +0.172 A 
ENDROOT
BRANCH   4   7
ATOM      7  C6  UNL     1      39.017  76.908  -1.589  0.00  0.00    +0.079 C 
ATOM      8  N1  UNL     1      38.586  78.069  -1.987  0.00  0.00    -0.172 NA
ATOM      9  N2  UNL     1      38.725  78.558  -3.302  0.00  0.00    -0.222 N 
ATOM     10  C14 UNL     1      39.542  77.979  -4.153  0.00  0.00    +0.253 C 
ATOM     11  O2  UNL     1      39.737  78.543  -5.418  0.00  0.00    -0.271 OA
ATOM     12  C15 UNL     1      40.340  76.750  -3.734  0.00  0.00    +0.091 C 
ATOM     13  C16 UNL     1      40.630  75.784  -4.901  0.00  0.00    +0.035 C 
ATOM     14  C17 UNL     1      39.337  75.269  -5.457  0.00  0.00    -0.030 C 
ATOM     15  C18 UNL     1      38.347  74.922  -4.626  0.00  0.00    -0.030 C 
ATOM     16  C19 UNL     1      38.523  74.960  -3.125  0.00  0.00    +0.032 C 
ATOM     17  C20 UNL     1      39.612  75.960  -2.609  0.00  0.00    +0.056 C 
BRANCH   9  18
ATOM     18  C7  UNL     1      37.968  79.784  -3.632  0.00  0.00    +0.108 C 
ATOM     19  C8  UNL     1      37.019  79.548  -4.837  0.00  0.00    +0.024 C 
ATOM     20  C9  UNL     1      36.816  80.813  -5.687  0.00  0.00    +0.002 C 
ATOM     21  C10 UNL     1      35.839  81.817  -5.067  0.00  0.00    +0.000 C 
ATOM     22  C11 UNL     1      36.279  82.330  -3.690  0.00  0.00    +0.000 C 
ATOM     23  C12 UNL     1      36.081  81.278  -2.587  0.00  0.00    +0.002 C 
ATOM     24  C13 UNL     1      37.302  80.373  -2.359  0.00  0.00    +0.024 C 
ENDBRANCH   9  18
ENDBRANCH   4   7
BRANCH   1  26
ATOM     25  C1  UNL     1      38.966  74.409   4.565  0.00  0.00    +0.253 C 
ATOM     26  O1  UNL     1      38.178  75.366   3.864  0.00  0.00    -0.468 OA
ENDBRANCH   1  26
BRANCH   6  27
ATOM     27  O3  UNL     1      38.880  77.941   3.308  0.00  0.00    -0.472 OA
BRANCH  27  28
ATOM     28  C23 UNL     1      39.242  79.318   3.207  0.00  0.00    +0.206 C 
BRANCH  28  29
ATOM     29  C24 UNL     1      38.004  80.184   2.959  0.00  0.00    +0.051 C 
BRANCH  29  30
ATOM     30  C25 UNL     1      38.081  80.889   1.599  0.00  0.00    +0.051 C 
BRANCH  30  31
ATOM     31  C26 UNL     1      36.722  80.902   0.900  0.00  0.00    +0.206 C 
BRANCH  31  32
ATOM     32  O4  UNL     1      35.854  81.813   1.571  0.00  0.00    -0.475 OA
BRANCH  32  33
ATOM     33  C27 UNL     1      35.405  83.029   1.039  0.00  0.00    +0.139 A 
ATOM     34  C28 UNL     1      35.106  83.081  -0.324  0.00  0.00    +0.037 A 
ATOM     35  C29 UNL     1      34.687  84.273  -0.917  0.00  0.00    +0.006 A 
ATOM     36  C30 UNL     1      34.539  85.443  -0.147  0.00  0.00    +0.040 A 
ATOM     37  C32 UNL     1      34.816  85.382   1.233  0.00  0.00    +0.006 A 
ATOM     38  C33 UNL     1      35.251  84.189   1.820  0.00  0.00    +0.037 A 
BRANCH  36  39
ATOM     39  C31 UNL     1      34.106  86.715  -0.781  0.00  0.00    +0.208 A 
ATOM     40  N3  UNL     1      34.909  87.767  -1.051  0.00  0.00    -0.106 NA
ATOM     41  N4  UNL     1      34.136  88.671  -1.629  0.00  0.00    -0.021 NA
ATOM     42  N5  UNL     1      32.901  88.207  -1.714  0.00  0.00    -0.021 NA
ATOM     43  N6  UNL     1      32.850  86.992  -1.198  0.00  0.00    -0.106 NA
ENDBRANCH  36  39
ENDBRANCH  32  33
ENDBRANCH  31  32
ENDBRANCH  30  31
ENDBRANCH  29  30
ENDBRANCH  28  29
ENDBRANCH  27  28
ENDBRANCH   6  27
TORSDOF 11
ENDMDL
MODEL 2
REMARK VINA RESULT:      -2.5      2.493      7.603
REMARK  Name = ./data/4u7t_site_bc02/pdb/l1c0.pdb
REMARK  11 active torsions:
REMARK  status: ('A' for Active; 'I' for Inactive)
REMARK    1  A    between atoms: O1_2  and  C2_3
REMARK    2  A    between atoms: C5_6  and  C6_7
REMARK    3  A    between atoms: N2_9  and  C7_10
REMARK    4  A    between atoms: C22_26  and  O3_27
REMARK    5  A    between atoms: O3_27  and  C23_28
REMARK    6  A    between atoms: C23_28  and  C24_29
REMARK    7  A    between atoms: C24_29  and  C25_30
REMARK    8  A    between atoms: C25_30  and  C26_31
REMARK    9  A    between atoms: C26_31  and  O4_32
REMARK   10  A    between atoms: O4_32  and  C27_33
REMARK   11  A    between atoms: C30_36  and  C31_37
REMARK                            x       y       z     vdW  Elec       q    Type
REMARK                         _______ _______ _______ _____ _____    ______ ____
ROOT
ATOM      1  C2  UNL     1      36.562  78.602   1.086  0.00  0.00    +0.172 A 
ATOM      2  C3  UNL     1      36.026  78.422  -0.200  0.00  0.00    +0.040 A 
ATOM      3  C4  UNL     1      35.789  79.520  -1.027  0.00  0.00    +0.005 A 
ATOM      4  C5  UNL     1      36.085  80.826  -0.598  0.00  0.00    +0.018 A 
ATOM      5  C21 UNL     1      36.636  80.999   0.687  0.00  0.00    +0.041 A 
ATOM      6  C22 UNL     1      36.855  79.896   1.538  0.00  0.00    +0.172 A 
ENDROOT
BRANCH   4   7
ATOM      7  C6  UNL     1      35.820  81.984  -1.506  0.00  0.00    +0.079 C 
ATOM      8  N1  UNL     1      35.360  83.086  -0.991  0.00  0.00    -0.172 NA
ATOM      9  N2  UNL     1      35.068  84.248  -1.736  0.00  0.00    -0.222 N 
ATOM     10  C14 UNL     1      35.498  84.381  -2.971  0.00  0.00    +0.253 C 
ATOM     11  O2  UNL     1      35.282  85.584  -3.652  0.00  0.00    -0.271 OA
ATOM     12  C15 UNL     1      36.304  83.266  -3.627  0.00  0.00    +0.091 C 
ATOM     13  C16 UNL     1      36.103  83.187  -5.154  0.00  0.00    +0.035 C 
ATOM     14  C17 UNL     1      34.665  82.891  -5.456  0.00  0.00    -0.030 C 
ATOM     15  C18 UNL     1      34.002  81.992  -4.717  0.00  0.00    -0.030 C 
ATOM     16  C19 UNL     1      34.689  81.200  -3.629  0.00  0.00    +0.032 C 
ATOM     17  C20 UNL     1      35.956  81.881  -3.010  0.00  0.00    +0.056 C 
BRANCH   9  18
ATOM     18  C7  UNL     1      34.332  85.317  -1.028  0.00  0.00    +0.108 C 
ATOM     19  C8  UNL     1      34.553  85.225   0.506  0.00  0.00    +0.024 C 
ATOM     20  C9  UNL     1      33.335  85.714   1.307  0.00  0.00    +0.002 C 
ATOM     21  C10 UNL     1      33.220  87.240   1.378  0.00  0.00    +0.000 C 
ATOM     22  C11 UNL     1      33.084  87.908   0.004  0.00  0.00    +0.000 C 
ATOM     23  C12 UNL     1      34.414  87.927  -0.767  0.00  0.00    +0.002 C 
ATOM     24  C13 UNL     1      34.632  86.700  -1.668  0.00  0.00    +0.024 C 
ENDBRANCH   9  18
ENDBRANCH   4   7
BRANCH   1  26
ATOM     25  C1  UNL     1      36.225  76.234   1.814  0.00  0.00    +0.253 C 
ATOM     26  O1  UNL     1      36.816  77.522   1.946  0.00  0.00    -0.468 OA
ENDBRANCH   1  26
BRANCH   6  27
ATOM     27  O3  UNL     1      37.366  80.039   2.840  0.00  0.00    -0.472 OA
BRANCH  27  28
ATOM     28  C23 UNL     1      38.625  80.617   3.184  0.00  0.00    +0.206 C 
BRANCH  28  29
ATOM     29  C24 UNL     1      39.752  79.977   2.369  0.00  0.00    +0.051 C 
BRANCH  29  30
ATOM     30  C25 UNL     1      40.432  81.004   1.456  0.00  0.00    +0.051 C 
BRANCH  30  31
ATOM     31  C26 UNL     1      40.624  80.455   0.044  0.00  0.00    +0.206 C 
BRANCH  31  32
ATOM     32  O4  UNL     1      39.821  79.287  -0.123  0.00  0.00    -0.475 OA
BRANCH  32  33
ATOM     33  C27 UNL     1      39.467  78.730  -1.359  0.00  0.00    +0.139 A 
ATOM     34  C28 UNL     1      39.159  79.598  -2.408  0.00  0.00    +0.037 A 
ATOM     35  C29 UNL     1      38.766  79.101  -3.652  0.00  0.00    +0.006 A 
ATOM     36  C30 UNL     1      38.691  77.713  -3.878  0.00  0.00    +0.040 A 
ATOM     37  C32 UNL     1      39.028  76.838  -2.826  0.00  0.00    +0.006 A 
ATOM     38  C33 UNL     1      39.405  77.341  -1.576  0.00  0.00    +0.037 A 
BRANCH  36  39
ATOM     39  C31 UNL     1      38.260  77.184  -5.198  0.00  0.00    +0.208 A 
ATOM     40  N3  UNL     1      38.048  77.925  -6.307  0.00  0.00    -0.106 NA
ATOM     41  N4  UNL     1      37.704  77.068  -7.252  0.00  0.00    -0.021 NA
ATOM     42  N5  UNL     1      37.696  75.842  -6.757  0.00  0.00    -0.021 NA
ATOM     43  N6  UNL     1      38.041  75.880  -5.483  0.00  0.00    -0.106 NA
ENDBRANCH  36  39
ENDBRANCH  32  33
ENDBRANCH  31  32
ENDBRANCH  30  31
ENDBRANCH  29  30
ENDBRANCH  28  29
ENDBRANCH  27  28
ENDBRANCH   6  27
TORSDOF 11
ENDMDL
