MODEL 1
REMARK VINA RESULT:     -10.3      0.000      0.000
REMARK  Name = ./data/4u7t_site_bc02/pdb/l1c2.pdb
REMARK  11 active torsions:
REMARK  status: ('A' for Active; 'I' for Inactive)
REMARK    1  A    between atoms: O1_2  and  C2_3
REMARK    2  A    between atoms: C5_6  and  C6_7
REMARK    3  A    between atoms: N2_9  and  C7_10
REMARK    4  A    between atoms: C22_26  and  O3_27
REMARK    5  A    between atoms: O3_27  and  C23_28
REMARK    6  A    between atoms: C23_28  and  C24_29
REMARK    7  A    between atoms: C24_29  and  C25_30
REMARK    8  A    between atoms: C25_30  and  C26_31
REMARK    9  A    between atoms: C26_31  and  O4_32
REMARK   10  A    between atoms: O4_32  and  C27_33
REMARK   11  A    between atoms: C30_36  and  C31_37
REMARK                            x       y       z     vdW  Elec       q    Type
REMARK                         _______ _______ _______ _____ _____    ______ ____
ROOT
ATOM      1  C2  UNL     1      19.972  62.835  -3.231  0.00  0.00    +0.172 A 
ATOM      2  C3  UNL     1      19.002  62.485  -4.187  0.00  0.00    +0.040 A 
ATOM      3  C4  UNL     1      19.019  61.224  -4.785  0.00  0.00    +0.005 A 
ATOM      4  C5  UNL     1      20.016  60.292  -4.455  0.00  0.00    +0.018 A 
ATOM      5  C21 UNL     1      20.973  60.636  -3.483  0.00  0.00    +0.041 A 
ATOM      6  C22 UNL     1      20.957  61.904  -2.869  0.00  0.00    +0.172 A 
ENDROOT
BRANCH   4   7
ATOM      7  C6  UNL     1      20.044  58.936  -5.066  0.00  0.00    +0.079 C 
ATOM      8  N1  UNL     1      19.971  58.869  -6.357  0.00  0.00    -0.172 NA
ATOM      9  N2  UNL     1      20.054  57.698  -7.133  0.00  0.00    -0.222 N 
ATOM     10  C14 UNL     1      20.106  56.517  -6.559  0.00  0.00    +0.253 C 
ATOM     11  O2  UNL     1      20.129  55.326  -7.297  0.00  0.00    -0.271 OA
ATOM     12  C15 UNL     1      20.109  56.356  -5.057  0.00  0.00    +0.091 C 
ATOM     13  C16 UNL     1      18.896  55.490  -4.642  0.00  0.00    +0.035 C 
ATOM     14  C17 UNL     1      18.892  55.308  -3.153  0.00  0.00    -0.030 C 
ATOM     15  C18 UNL     1      19.097  56.372  -2.373  0.00  0.00    -0.030 C 
ATOM     16  C19 UNL     1      19.256  57.726  -3.007  0.00  0.00    +0.032 C 
ATOM     17  C20 UNL     1      20.224  57.687  -4.228  0.00  0.00    +0.056 C 
BRANCH   9  18
ATOM     18  C7  UNL     1      19.980  57.863  -8.605  0.00  0.00    +0.108 C 
ATOM     19  C8  UNL     1      19.324  59.224  -8.949  0.00  0.00    +0.024 C 
ATOM     20  C9  UNL     1      20.310  60.397  -9.094  0.00  0.00    +0.002 C 
ATOM     21  C10 UNL     1      20.827  60.540 -10.536  0.00  0.00    +0.000 C 
ATOM     22  C11 UNL     1      21.885  59.499 -10.921  0.00  0.00    +0.000 C 
ATOM     23  C12 UNL     1      21.414  58.043 -10.762  0.00  0.00    +0.002 C 
ATOM     24  C13 UNL     1      21.357  57.614  -9.284  0.00  0.00    +0.024 C 
ENDBRANCH   9  18
ENDBRANCH   4   7
BRANCH   1  26
ATOM     25  C1  UNL     1      20.546  65.271  -3.178  0.00  0.00    +0.253 C 
ATOM     26  O1  UNL     1      19.982  64.092  -2.607  0.00  0.00    -0.468 OA
ENDBRANCH   1  26
BRANCH   6  27
ATOM     27  O3  UNL     1      21.890  62.276  -1.886  0.00  0.00    -0.472 OA
BRANCH  27  28
ATOM     28  C23 UNL     1      21.885  61.842  -0.525  0.00  0.00    +0.206 C 
BRANCH  28  29
ATOM     29  C24 UNL     1      23.049  62.450   0.266  0.00  0.00    +0.051 C 
BRANCH  29  30
ATOM     30  C25 UNL     1      22.862  62.288   1.779  0.00  0.00    +0.051 C 
BRANCH  30  31
ATOM     31  C26 UNL     1      21.431  62.648   2.192  0.00  0.00    +0.206 C 
BRANCH  31  32
ATOM     32  O4  UNL     1      21.034  61.900   3.341  0.00  0.00    -0.475 OA
BRANCH  32  33
ATOM     33  C27 UNL     1      20.690  60.538   3.352  0.00  0.00    +0.139 A 
ATOM     34  C28 UNL     1      20.112  59.995   2.201  0.00  0.00    +0.037 A 
ATOM     35  C29 UNL     1      19.789  58.636   2.135  0.00  0.00    +0.006 A 
ATOM     36  C30 UNL     1      20.032  57.791   3.232  0.00  0.00    +0.040 A 
ATOM     37  C32 UNL     1      20.593  58.342   4.399  0.00  0.00    +0.006 A 
ATOM     38  C33 UNL     1      20.920  59.701   4.460  0.00  0.00    +0.037 A 
BRANCH  36  39
ATOM     39  C31 UNL     1      19.713  56.344   3.153  0.00  0.00    +0.208 A 
ATOM     40  N3  UNL     1      18.747  55.798   2.381  0.00  0.00    -0.106 NA
ATOM     41  N4  UNL     1      18.816  54.494   2.589  0.00  0.00    -0.021 NA
ATOM     42  N5  UNL     1      19.781  54.235   3.454  0.00  0.00    -0.021 NA
ATOM     43  N6  UNL     1      20.360  55.365   3.822  0.00  0.00    -0.106 NA
ENDBRANCH  36  39
ENDBRANCH  32  33
ENDBRANCH  31  32
ENDBRANCH  30  31
ENDBRANCH  29  30
ENDBRANCH  28  29
ENDBRANCH  27  28
ENDBRANCH   6  27
TORSDOF 11
ENDMDL
MODEL 2
REMARK VINA RESULT:      -9.2      2.486      2.792
REMARK  Name = ./data/4u7t_site_bc02/pdb/l1c2.pdb
REMARK  11 active torsions:
REMARK  status: ('A' for Active; 'I' for Inactive)
REMARK    1  A    between atoms: O1_2  and  C2_3
REMARK    2  A    between atoms: C5_6  and  C6_7
REMARK    3  A    between atoms: N2_9  and  C7_10
REMARK    4  A    between atoms: C22_26  and  O3_27
REMARK    5  A    between atoms: O3_27  and  C23_28
REMARK    6  A    between atoms: C23_28  and  C24_29
REMARK    7  A    between atoms: C24_29  and  C25_30
REMARK    8  A    between atoms: C25_30  and  C26_31
REMARK    9  A    between atoms: C26_31  and  O4_32
REMARK   10  A    between atoms: O4_32  and  C27_33
REMARK   11  A    between atoms: C30_36  and  C31_37
REMARK                            x       y       z     vdW  Elec       q    Type
REMARK                         _______ _______ _______ _____ _____    ______ ____
ROOT
ATOM      1  C2  UNL     1      19.735  62.495  -3.673  0.00  0.00    +0.172 A 
ATOM      2  C3  UNL     1      18.716  62.108  -4.563  0.00  0.00    +0.040 A 
ATOM      3  C4  UNL     1      18.824  60.922  -5.290  0.00  0.00    +0.005 A 
ATOM      4  C5  UNL     1      19.957  60.104  -5.157  0.00  0.00    +0.018 A 
ATOM      5  C21 UNL     1      20.964  60.481  -4.250  0.00  0.00    +0.041 A 
ATOM      6  C22 UNL     1      20.860  61.674  -3.508  0.00  0.00    +0.172 A 
ENDROOT
BRANCH   4   7
ATOM      7  C6  UNL     1      20.085  58.827  -5.908  0.00  0.00    +0.079 C 
ATOM      8  N1  UNL     1      20.103  58.900  -7.201  0.00  0.00    -0.172 NA
ATOM      9  N2  UNL     1      20.290  57.827  -8.091  0.00  0.00    -0.222 N 
ATOM     10  C14 UNL     1      20.352  56.591  -7.646  0.00  0.00    +0.253 C 
ATOM     11  O2  UNL     1      20.477  55.491  -8.505  0.00  0.00    -0.271 OA
ATOM     12  C15 UNL     1      20.258  56.265  -6.174  0.00  0.00    +0.091 C 
ATOM     13  C16 UNL     1      19.058  55.317  -5.944  0.00  0.00    +0.035 C 
ATOM     14  C17 UNL     1      18.959  54.970  -4.488  0.00  0.00    -0.030 C 
ATOM     15  C18 UNL     1      19.065  55.948  -3.585  0.00  0.00    -0.030 C 
ATOM     16  C19 UNL     1      19.209  57.368  -4.055  0.00  0.00    +0.032 C 
ATOM     17  C20 UNL     1      20.259  57.499  -5.199  0.00  0.00    +0.056 C 
BRANCH   9  18
ATOM     18  C7  UNL     1      20.310  58.152  -9.538  0.00  0.00    +0.108 C 
ATOM     19  C8  UNL     1      19.551  59.479  -9.789  0.00  0.00    +0.024 C 
ATOM     20  C9  UNL     1      20.425  60.744  -9.723  0.00  0.00    +0.002 C 
ATOM     21  C10 UNL     1      21.033  61.097 -11.093  0.00  0.00    +0.000 C 
ATOM     22  C11 UNL     1      22.214  60.205 -11.495  0.00  0.00    +0.000 C 
ATOM     23  C12 UNL     1      21.876  58.704 -11.533  0.00  0.00    +0.002 C 
ATOM     24  C13 UNL     1      21.752  58.105 -10.119  0.00  0.00    +0.024 C 
ENDBRANCH   9  18
ENDBRANCH   4   7
BRANCH   1  26
ATOM     25  C1  UNL     1      19.266  64.944  -3.453  0.00  0.00    +0.253 C 
ATOM     26  O1  UNL     1      19.658  63.678  -2.924  0.00  0.00    -0.468 OA
ENDBRANCH   1  26
BRANCH   6  27
ATOM     27  O3  UNL     1      21.842  62.074  -2.585  0.00  0.00    -0.472 OA
BRANCH  27  28
ATOM     28  C23 UNL     1      22.226  61.355  -1.412  0.00  0.00    +0.206 C 
BRANCH  28  29
ATOM     29  C24 UNL     1      21.118  60.404  -0.944  0.00  0.00    +0.051 C 
BRANCH  29  30
ATOM     30  C25 UNL     1      20.931  60.446   0.578  0.00  0.00    +0.051 C 
BRANCH  30  31
ATOM     31  C26 UNL     1      20.052  59.284   1.050  0.00  0.00    +0.206 C 
BRANCH  31  32
ATOM     32  O4  UNL     1      19.947  59.277   2.474  0.00  0.00    -0.475 OA
BRANCH  32  33
ATOM     33  C27 UNL     1      18.800  58.932   3.208  0.00  0.00    +0.139 A 
ATOM     34  C28 UNL     1      17.736  58.335   2.525  0.00  0.00    +0.037 A 
ATOM     35  C29 UNL     1      16.585  57.930   3.209  0.00  0.00    +0.006 A 
ATOM     36  C30 UNL     1      16.474  58.124   4.596  0.00  0.00    +0.040 A 
ATOM     37  C32 UNL     1      17.536  58.746   5.280  0.00  0.00    +0.006 A 
ATOM     38  C33 UNL     1      18.687  59.145   4.595  0.00  0.00    +0.037 A 
BRANCH  36  39
ATOM     39  C31 UNL     1      15.264  57.671   5.326  0.00  0.00    +0.208 A 
ATOM     40  N3  UNL     1      15.263  57.024   6.513  0.00  0.00    -0.106 NA
ATOM     41  N4  UNL     1      13.990  56.830   6.815  0.00  0.00    -0.021 NA
ATOM     42  N5  UNL     1      13.228  57.331   5.860  0.00  0.00    -0.021 NA
ATOM     43  N6  UNL     1      13.990  57.863   4.919  0.00  0.00    -0.106 NA
ENDBRANCH  36  39
ENDBRANCH  32  33
ENDBRANCH  31  32
ENDBRANCH  30  31
ENDBRANCH  29  30
ENDBRANCH  28  29
ENDBRANCH  27  28
ENDBRANCH   6  27
TORSDOF 11
ENDMDL
MODEL 3
REMARK VINA RESULT:      -9.0      2.746      9.296
REMARK  Name = ./data/4u7t_site_bc02/pdb/l1c2.pdb
REMARK  11 active torsions:
REMARK  status: ('A' for Active; 'I' for Inactive)
REMARK    1  A    between atoms: O1_2  and  C2_3
REMARK    2  A    between atoms: C5_6  and  C6_7
REMARK    3  A    between atoms: N2_9  and  C7_10
REMARK    4  A    between atoms: C22_26  and  O3_27
REMARK    5  A    between atoms: O3_27  and  C23_28
REMARK    6  A    between atoms: C23_28  and  C24_29
REMARK    7  A    between atoms: C24_29  and  C25_30
REMARK    8  A    between atoms: C25_30  and  C26_31
REMARK    9  A    between atoms: C26_31  and  O4_32
REMARK   10  A    between atoms: O4_32  and  C27_33
REMARK   11  A    between atoms: C30_36  and  C31_37
REMARK                            x       y       z     vdW  Elec       q    Type
REMARK                         _______ _______ _______ _____ _____    ______ ____
ROOT
ATOM      1  C2  UNL     1      21.835  61.151  -1.654  0.00  0.00    +0.172 A 
ATOM      2  C3  UNL     1      21.818  60.245  -0.578  0.00  0.00    +0.040 A 
ATOM      3  C4  UNL     1      21.044  59.085  -0.640  0.00  0.00    +0.005 A 
ATOM      4  C5  UNL     1      20.257  58.814  -1.770  0.00  0.00    +0.018 A 
ATOM      5  C21 UNL     1      20.291  59.709  -2.854  0.00  0.00    +0.041 A 
ATOM      6  C22 UNL     1      21.075  60.878  -2.802  0.00  0.00    +0.172 A 
ENDROOT
BRANCH   4   7
ATOM      7  C6  UNL     1      19.438  57.575  -1.865  0.00  0.00    +0.079 C 
ATOM      8  N1  UNL     1      18.781  57.219  -0.808  0.00  0.00    -0.172 NA
ATOM      9  N2  UNL     1      17.895  56.130  -0.710  0.00  0.00    -0.222 N 
ATOM     10  C14 UNL     1      17.754  55.289  -1.711  0.00  0.00    +0.253 C 
ATOM     11  O2  UNL     1      16.928  54.160  -1.629  0.00  0.00    -0.271 OA
ATOM     12  C15 UNL     1      18.499  55.462  -3.012  0.00  0.00    +0.091 C 
ATOM     13  C16 UNL     1      19.356  54.201  -3.273  0.00  0.00    +0.035 C 
ATOM     14  C17 UNL     1      20.093  54.350  -4.571  0.00  0.00    -0.030 C 
ATOM     15  C18 UNL     1      20.720  55.500  -4.827  0.00  0.00    -0.030 C 
ATOM     16  C19 UNL     1      20.728  56.580  -3.782  0.00  0.00    +0.032 C 
ATOM     17  C20 UNL     1      19.316  56.798  -3.160  0.00  0.00    +0.056 C 
BRANCH   9  18
ATOM     18  C7  UNL     1      17.222  55.929   0.597  0.00  0.00    +0.108 C 
ATOM     19  C8  UNL     1      18.271  55.560   1.677  0.00  0.00    +0.024 C 
ATOM     20  C9  UNL     1      18.874  56.760   2.427  0.00  0.00    +0.002 C 
ATOM     21  C10 UNL     1      18.054  57.132   3.675  0.00  0.00    +0.000 C 
ATOM     22  C11 UNL     1      16.753  57.881   3.361  0.00  0.00    +0.000 C 
ATOM     23  C12 UNL     1      15.805  57.116   2.420  0.00  0.00    +0.002 C 
ATOM     24  C13 UNL     1      16.305  57.131   0.963  0.00  0.00    +0.024 C 
ENDBRANCH   9  18
ENDBRANCH   4   7
BRANCH   1  26
ATOM     25  C1  UNL     1      22.282  63.482  -0.859  0.00  0.00    +0.253 C 
ATOM     26  O1  UNL     1      22.604  62.324  -1.627  0.00  0.00    -0.468 OA
ENDBRANCH   1  26
BRANCH   6  27
ATOM     27  O3  UNL     1      21.143  61.788  -3.871  0.00  0.00    -0.472 OA
BRANCH  27  28
ATOM     28  C23 UNL     1      20.317  62.942  -4.038  0.00  0.00    +0.206 C 
BRANCH  28  29
ATOM     29  C24 UNL     1      19.358  62.783  -5.223  0.00  0.00    +0.051 C 
BRANCH  29  30
ATOM     30  C25 UNL     1      18.141  61.921  -4.865  0.00  0.00    +0.051 C 
BRANCH  30  31
ATOM     31  C26 UNL     1      18.024  60.724  -5.814  0.00  0.00    +0.206 C 
BRANCH  31  32
ATOM     32  O4  UNL     1      19.255  60.003  -5.871  0.00  0.00    -0.475 OA
BRANCH  32  33
ATOM     33  C27 UNL     1      19.845  59.481  -7.034  0.00  0.00    +0.139 A 
ATOM     34  C28 UNL     1      20.419  60.378  -7.941  0.00  0.00    +0.037 A 
ATOM     35  C29 UNL     1      21.059  59.916  -9.095  0.00  0.00    +0.006 A 
ATOM     36  C30 UNL     1      21.130  58.540  -9.369  0.00  0.00    +0.040 A 
ATOM     37  C32 UNL     1      20.532  57.638  -8.468  0.00  0.00    +0.006 A 
ATOM     38  C33 UNL     1      19.897  58.103  -7.312  0.00  0.00    +0.037 A 
BRANCH  36  39
ATOM     39  C31 UNL     1      21.832  58.048 -10.581  0.00  0.00    +0.208 A 
ATOM     40  N3  UNL     1      22.560  58.812 -11.426  0.00  0.00    -0.106 NA
ATOM     41  N4  UNL     1      23.026  57.984 -12.346  0.00  0.00    -0.021 NA
ATOM     42  N5  UNL     1      22.608  56.758 -12.090  0.00  0.00    -0.021 NA
ATOM     43  N6  UNL     1      21.864  56.763 -10.996  0.00  0.00    -0.106 NA
ENDBRANCH  36  39
ENDBRANCH  32  33
ENDBRANCH  31  32
ENDBRANCH  30  31
ENDBRANCH  29  30
ENDBRANCH  28  29
ENDBRANCH  27  28
ENDBRANCH   6  27
TORSDOF 11
ENDMDL
MODEL 4
REMARK VINA RESULT:      -8.4      3.550     11.162
REMARK  Name = ./data/4u7t_site_bc02/pdb/l1c2.pdb
REMARK  11 active torsions:
REMARK  status: ('A' for Active; 'I' for Inactive)
REMARK    1  A    between atoms: O1_2  and  C2_3
REMARK    2  A    between atoms: C5_6  and  C6_7
REMARK    3  A    between atoms: N2_9  and  C7_10
REMARK    4  A    between atoms: C22_26  and  O3_27
REMARK    5  A    between atoms: O3_27  and  C23_28
REMARK    6  A    between atoms: C23_28  and  C24_29
REMARK    7  A    between atoms: C24_29  and  C25_30
REMARK    8  A    between atoms: C25_30  and  C26_31
REMARK    9  A    between atoms: C26_31  and  O4_32
REMARK   10  A    between atoms: O4_32  and  C27_33
REMARK   11  A    between atoms: C30_36  and  C31_37
REMARK                            x       y       z     vdW  Elec       q    Type
REMARK                         _______ _______ _______ _____ _____    ______ ____
ROOT
ATOM      1  C2  UNL     1      18.548  55.150  -1.796  0.00  0.00    +0.172 A 
ATOM      2  C3  UNL     1      17.878  54.220  -0.980  0.00  0.00    +0.040 A 
ATOM      3  C4  UNL     1      17.305  54.621   0.228  0.00  0.00    +0.005 A 
ATOM      4  C5  UNL     1      17.404  55.954   0.656  0.00  0.00    +0.018 A 
ATOM      5  C21 UNL     1      18.055  56.887  -0.170  0.00  0.00    +0.041 A 
ATOM      6  C22 UNL     1      18.630  56.492  -1.395  0.00  0.00    +0.172 A 
ENDROOT
BRANCH   4   7
ATOM      7  C6  UNL     1      16.785  56.407   1.931  0.00  0.00    +0.079 C 
ATOM      8  N1  UNL     1      17.565  56.972   2.797  0.00  0.00    -0.172 NA
ATOM      9  N2  UNL     1      17.171  57.534   4.025  0.00  0.00    -0.222 N 
ATOM     10  C14 UNL     1      15.931  57.420   4.447  0.00  0.00    +0.253 C 
ATOM     11  O2  UNL     1      15.514  57.914   5.690  0.00  0.00    -0.271 OA
ATOM     12  C15 UNL     1      14.871  56.716   3.634  0.00  0.00    +0.091 C 
ATOM     13  C16 UNL     1      14.294  55.546   4.466  0.00  0.00    +0.035 C 
ATOM     14  C17 UNL     1      13.228  54.844   3.678  0.00  0.00    -0.030 C 
ATOM     15  C18 UNL     1      13.465  54.541   2.399  0.00  0.00    -0.030 C 
ATOM     16  C19 UNL     1      14.813  54.850   1.811  0.00  0.00    +0.032 C 
ATOM     17  C20 UNL     1      15.296  56.284   2.183  0.00  0.00    +0.056 C 
BRANCH   9  18
ATOM     18  C7  UNL     1      18.235  58.162   4.847  0.00  0.00    +0.108 C 
ATOM     19  C8  UNL     1      19.155  57.065   5.441  0.00  0.00    +0.024 C 
ATOM     20  C9  UNL     1      20.364  56.694   4.565  0.00  0.00    +0.002 C 
ATOM     21  C10 UNL     1      21.591  57.571   4.873  0.00  0.00    +0.000 C 
ATOM     22  C11 UNL     1      21.503  58.986   4.290  0.00  0.00    +0.000 C 
ATOM     23  C12 UNL     1      20.266  59.776   4.755  0.00  0.00    +0.002 C 
ATOM     24  C13 UNL     1      18.978  59.285   4.068  0.00  0.00    +0.024 C 
ENDBRANCH   9  18
ENDBRANCH   4   7
BRANCH   1  26
ATOM     25  C1  UNL     1      18.473  54.859  -4.281  0.00  0.00    +0.253 C 
ATOM     26  O1  UNL     1      19.132  54.783  -3.017  0.00  0.00    -0.468 OA
ENDBRANCH   1  26
BRANCH   6  27
ATOM     27  O3  UNL     1      19.277  57.400  -2.250  0.00  0.00    -0.472 OA
BRANCH  27  28
ATOM     28  C23 UNL     1      20.316  58.305  -1.874  0.00  0.00    +0.206 C 
BRANCH  28  29
ATOM     29  C24 UNL     1      20.374  59.518  -2.810  0.00  0.00    +0.051 C 
BRANCH  29  30
ATOM     30  C25 UNL     1      19.752  59.217  -4.179  0.00  0.00    +0.051 C 
BRANCH  30  31
ATOM     31  C26 UNL     1      19.392  60.514  -4.911  0.00  0.00    +0.206 C 
BRANCH  31  32
ATOM     32  O4  UNL     1      18.797  60.230  -6.177  0.00  0.00    -0.475 OA
BRANCH  32  33
ATOM     33  C27 UNL     1      19.442  59.622  -7.267  0.00  0.00    +0.139 A 
ATOM     34  C28 UNL     1      20.750  60.018  -7.563  0.00  0.00    +0.037 A 
ATOM     35  C29 UNL     1      21.459  59.419  -8.608  0.00  0.00    +0.006 A 
ATOM     36  C30 UNL     1      20.866  58.410  -9.386  0.00  0.00    +0.040 A 
ATOM     37  C32 UNL     1      19.542  58.027  -9.103  0.00  0.00    +0.006 A 
ATOM     38  C33 UNL     1      18.836  58.625  -8.054  0.00  0.00    +0.037 A 
BRANCH  36  39
ATOM     39  C31 UNL     1      21.628  57.755 -10.479  0.00  0.00    +0.208 A 
ATOM     40  N3  UNL     1      22.500  58.377 -11.305  0.00  0.00    -0.106 NA
ATOM     41  N4  UNL     1      22.970  57.435 -12.105  0.00  0.00    -0.021 NA
ATOM     42  N5  UNL     1      22.417  56.275 -11.795  0.00  0.00    -0.021 NA
ATOM     43  N6  UNL     1      21.579  56.441 -10.786  0.00  0.00    -0.106 NA
ENDBRANCH  36  39
ENDBRANCH  32  33
ENDBRANCH  31  32
ENDBRANCH  30  31
ENDBRANCH  29  30
ENDBRANCH  28  29
ENDBRANCH  27  28
ENDBRANCH   6  27
TORSDOF 11
ENDMDL
MODEL 5
REMARK VINA RESULT:      -7.9      2.715     10.540
REMARK  Name = ./data/4u7t_site_bc02/pdb/l1c2.pdb
REMARK  11 active torsions:
REMARK  status: ('A' for Active; 'I' for Inactive)
REMARK    1  A    between atoms: O1_2  and  C2_3
REMARK    2  A    between atoms: C5_6  and  C6_7
REMARK    3  A    between atoms: N2_9  and  C7_10
REMARK    4  A    between atoms: C22_26  and  O3_27
REMARK    5  A    between atoms: O3_27  and  C23_28
REMARK    6  A    between atoms: C23_28  and  C24_29
REMARK    7  A    between atoms: C24_29  and  C25_30
REMARK    8  A    between atoms: C25_30  and  C26_31
REMARK    9  A    between atoms: C26_31  and  O4_32
REMARK   10  A    between atoms: O4_32  and  C27_33
REMARK   11  A    between atoms: C30_36  and  C31_37
REMARK                            x       y       z     vdW  Elec       q    Type
REMARK                         _______ _______ _______ _____ _____    ______ ____
ROOT
ATOM      1  C2  UNL     1      18.041  55.200  -1.356  0.00  0.00    +0.172 A 
ATOM      2  C3  UNL     1      17.865  55.279   0.037  0.00  0.00    +0.040 A 
ATOM      3  C4  UNL     1      18.379  56.360   0.755  0.00  0.00    +0.005 A 
ATOM      4  C5  UNL     1      19.095  57.374   0.101  0.00  0.00    +0.018 A 
ATOM      5  C21 UNL     1      19.252  57.304  -1.295  0.00  0.00    +0.041 A 
ATOM      6  C22 UNL     1      18.730  56.220  -2.028  0.00  0.00    +0.172 A 
ENDROOT
BRANCH   4   7
ATOM      7  C6  UNL     1      19.637  58.544   0.843  0.00  0.00    +0.079 C 
ATOM      8  N1  UNL     1      20.453  59.323   0.205  0.00  0.00    -0.172 NA
ATOM      9  N2  UNL     1      21.016  60.515   0.694  0.00  0.00    -0.222 N 
ATOM     10  C14 UNL     1      20.827  60.881   1.943  0.00  0.00    +0.253 C 
ATOM     11  O2  UNL     1      21.420  62.030   2.484  0.00  0.00    -0.271 OA
ATOM     12  C15 UNL     1      19.983  60.070   2.896  0.00  0.00    +0.091 C 
ATOM     13  C16 UNL     1      20.849  59.657   4.109  0.00  0.00    +0.035 C 
ATOM     14  C17 UNL     1      20.020  58.862   5.074  0.00  0.00    -0.030 C 
ATOM     15  C18 UNL     1      19.240  57.887   4.602  0.00  0.00    -0.030 C 
ATOM     16  C19 UNL     1      19.268  57.572   3.133  0.00  0.00    +0.032 C 
ATOM     17  C20 UNL     1      19.204  58.861   2.260  0.00  0.00    +0.056 C 
BRANCH   9  18
ATOM     18  C7  UNL     1      21.901  61.267  -0.229  0.00  0.00    +0.108 C 
ATOM     19  C8  UNL     1      21.561  60.901  -1.696  0.00  0.00    +0.024 C 
ATOM     20  C9  UNL     1      20.493  61.794  -2.353  0.00  0.00    +0.002 C 
ATOM     21  C10 UNL     1      21.114  63.022  -3.042  0.00  0.00    +0.000 C 
ATOM     22  C11 UNL     1      21.550  64.124  -2.068  0.00  0.00    +0.000 C 
ATOM     23  C12 UNL     1      22.561  63.654  -1.008  0.00  0.00    +0.002 C 
ATOM     24  C13 UNL     1      21.895  62.791   0.081  0.00  0.00    +0.024 C 
ENDBRANCH   9  18
ENDBRANCH   4   7
BRANCH   1  26
ATOM     25  C1  UNL     1      16.261  54.130  -2.755  0.00  0.00    +0.253 C 
ATOM     26  O1  UNL     1      17.534  54.130  -2.110  0.00  0.00    -0.468 OA
ENDBRANCH   1  26
BRANCH   6  27
ATOM     27  O3  UNL     1      18.857  56.125  -3.425  0.00  0.00    -0.472 OA
BRANCH  27  28
ATOM     28  C23 UNL     1      19.987  56.546  -4.190  0.00  0.00    +0.206 C 
BRANCH  28  29
ATOM     29  C24 UNL     1      20.715  55.354  -4.824  0.00  0.00    +0.051 C 
BRANCH  29  30
ATOM     30  C25 UNL     1      19.780  54.509  -5.698  0.00  0.00    +0.051 C 
BRANCH  30  31
ATOM     31  C26 UNL     1      20.178  54.607  -7.174  0.00  0.00    +0.206 C 
BRANCH  31  32
ATOM     32  O4  UNL     1      19.324  55.515  -7.868  0.00  0.00    -0.475 OA
BRANCH  32  33
ATOM     33  C27 UNL     1      19.740  56.665  -8.559  0.00  0.00    +0.139 A 
ATOM     34  C28 UNL     1      21.007  56.655  -9.151  0.00  0.00    +0.037 A 
ATOM     35  C29 UNL     1      21.460  57.752  -9.889  0.00  0.00    +0.006 A 
ATOM     36  C30 UNL     1      20.652  58.892 -10.042  0.00  0.00    +0.040 A 
ATOM     37  C32 UNL     1      19.386  58.911  -9.428  0.00  0.00    +0.006 A 
ATOM     38  C33 UNL     1      18.933  57.810  -8.694  0.00  0.00    +0.037 A 
BRANCH  36  39
ATOM     39  C31 UNL     1      21.123  60.047 -10.847  0.00  0.00    +0.208 A 
ATOM     40  N3  UNL     1      21.806  59.962 -12.010  0.00  0.00    -0.106 NA
ATOM     41  N4  UNL     1      22.004  61.209 -12.402  0.00  0.00    -0.021 NA
ATOM     42  N5  UNL     1      21.470  62.039 -11.523  0.00  0.00    -0.021 NA
ATOM     43  N6  UNL     1      20.911  61.346 -10.544  0.00  0.00    -0.106 NA
ENDBRANCH  36  39
ENDBRANCH  32  33
ENDBRANCH  31  32
ENDBRANCH  30  31
ENDBRANCH  29  30
ENDBRANCH  28  29
ENDBRANCH  27  28
ENDBRANCH   6  27
TORSDOF 11
ENDMDL
MODEL 6
REMARK VINA RESULT:      -7.9      3.845     10.473
REMARK  Name = ./data/4u7t_site_bc02/pdb/l1c2.pdb
REMARK  11 active torsions:
REMARK  status: ('A' for Active; 'I' for Inactive)
REMARK    1  A    between atoms: O1_2  and  C2_3
REMARK    2  A    between atoms: C5_6  and  C6_7
REMARK    3  A    between atoms: N2_9  and  C7_10
REMARK    4  A    between atoms: C22_26  and  O3_27
REMARK    5  A    between atoms: O3_27  and  C23_28
REMARK    6  A    between atoms: C23_28  and  C24_29
REMARK    7  A    between atoms: C24_29  and  C25_30
REMARK    8  A    between atoms: C25_30  and  C26_31
REMARK    9  A    between atoms: C26_31  and  O4_32
REMARK   10  A    between atoms: O4_32  and  C27_33
REMARK   11  A    between atoms: C30_36  and  C31_37
REMARK                            x       y       z     vdW  Elec       q    Type
REMARK                         _______ _______ _______ _____ _____    ______ ____
ROOT
ATOM      1  C2  UNL     1      17.731  54.803  -2.034  0.00  0.00    +0.172 A 
ATOM      2  C3  UNL     1      17.384  54.289  -0.771  0.00  0.00    +0.040 A 
ATOM      3  C4  UNL     1      17.713  54.987   0.392  0.00  0.00    +0.005 A 
ATOM      4  C5  UNL     1      18.411  56.203   0.321  0.00  0.00    +0.018 A 
ATOM      5  C21 UNL     1      18.738  56.726  -0.943  0.00  0.00    +0.041 A 
ATOM      6  C22 UNL     1      18.403  56.031  -2.123  0.00  0.00    +0.172 A 
ENDROOT
BRANCH   4   7
ATOM      7  C6  UNL     1      18.756  56.972   1.546  0.00  0.00    +0.079 C 
ATOM      8  N1  UNL     1      18.038  56.756   2.602  0.00  0.00    -0.172 NA
ATOM      9  N2  UNL     1      18.242  57.319   3.874  0.00  0.00    -0.222 N 
ATOM     10  C14 UNL     1      19.162  58.240   4.059  0.00  0.00    +0.253 C 
ATOM     11  O2  UNL     1      19.355  58.869   5.296  0.00  0.00    -0.271 OA
ATOM     12  C15 UNL     1      20.056  58.714   2.938  0.00  0.00    +0.091 C 
ATOM     13  C16 UNL     1      19.869  60.239   2.756  0.00  0.00    +0.035 C 
ATOM     14  C17 UNL     1      20.762  60.729   1.655  0.00  0.00    -0.030 C 
ATOM     15  C18 UNL     1      20.810  60.043   0.510  0.00  0.00    -0.030 C 
ATOM     16  C19 UNL     1      19.919  58.846   0.336  0.00  0.00    +0.032 C 
ATOM     17  C20 UNL     1      19.939  57.918   1.587  0.00  0.00    +0.056 C 
BRANCH   9  18
ATOM     18  C7  UNL     1      17.312  56.898   4.951  0.00  0.00    +0.108 C 
ATOM     19  C8  UNL     1      16.178  57.943   5.103  0.00  0.00    +0.024 C 
ATOM     20  C9  UNL     1      14.935  57.677   4.236  0.00  0.00    +0.002 C 
ATOM     21  C10 UNL     1      13.906  56.790   4.959  0.00  0.00    +0.000 C 
ATOM     22  C11 UNL     1      14.290  55.306   5.004  0.00  0.00    +0.000 C 
ATOM     23  C12 UNL     1      15.653  55.035   5.667  0.00  0.00    +0.002 C 
ATOM     24  C13 UNL     1      16.827  55.434   4.753  0.00  0.00    +0.024 C 
ENDBRANCH   9  18
ENDBRANCH   4   7
BRANCH   1  26
ATOM     25  C1  UNL     1      16.136  54.175  -3.858  0.00  0.00    +0.253 C 
ATOM     26  O1  UNL     1      17.412  54.130  -3.223  0.00  0.00    -0.468 OA
ENDBRANCH   1  26
BRANCH   6  27
ATOM     27  O3  UNL     1      18.704  56.530  -3.402  0.00  0.00    -0.472 OA
BRANCH  27  28
ATOM     28  C23 UNL     1      20.006  56.600  -3.984  0.00  0.00    +0.206 C 
BRANCH  28  29
ATOM     29  C24 UNL     1      19.991  57.375  -5.308  0.00  0.00    +0.051 C 
BRANCH  29  30
ATOM     30  C25 UNL     1      20.106  58.888  -5.088  0.00  0.00    +0.051 C 
BRANCH  30  31
ATOM     31  C26 UNL     1      20.149  59.220  -3.594  0.00  0.00    +0.206 C 
BRANCH  31  32
ATOM     32  O4  UNL     1      20.951  60.377  -3.356  0.00  0.00    -0.475 OA
BRANCH  32  33
ATOM     33  C27 UNL     1      20.475  61.694  -3.244  0.00  0.00    +0.139 A 
ATOM     34  C28 UNL     1      19.247  62.003  -3.838  0.00  0.00    +0.037 A 
ATOM     35  C29 UNL     1      18.700  63.284  -3.723  0.00  0.00    +0.006 A 
ATOM     36  C30 UNL     1      19.380  64.289  -3.013  0.00  0.00    +0.040 A 
ATOM     37  C32 UNL     1      20.626  63.985  -2.435  0.00  0.00    +0.006 A 
ATOM     38  C33 UNL     1      21.169  62.701  -2.548  0.00  0.00    +0.037 A 
BRANCH  36  39
ATOM     39  C31 UNL     1      18.787  65.642  -2.870  0.00  0.00    +0.208 A 
ATOM     40  N3  UNL     1      19.399  66.708  -2.306  0.00  0.00    -0.106 NA
ATOM     41  N4  UNL     1      18.540  67.708  -2.404  0.00  0.00    -0.021 NA
ATOM     42  N5  UNL     1      17.438  67.289  -3.001  0.00  0.00    -0.021 NA
ATOM     43  N6  UNL     1      17.561  66.008  -3.306  0.00  0.00    -0.106 NA
ENDBRANCH  36  39
ENDBRANCH  32  33
ENDBRANCH  31  32
ENDBRANCH  30  31
ENDBRANCH  29  30
ENDBRANCH  28  29
ENDBRANCH  27  28
ENDBRANCH   6  27
TORSDOF 11
ENDMDL
MODEL 7
REMARK VINA RESULT:      -7.5      3.179     10.175
REMARK  Name = ./data/4u7t_site_bc02/pdb/l1c2.pdb
REMARK  11 active torsions:
REMARK  status: ('A' for Active; 'I' for Inactive)
REMARK    1  A    between atoms: O1_2  and  C2_3
REMARK    2  A    between atoms: C5_6  and  C6_7
REMARK    3  A    between atoms: N2_9  and  C7_10
REMARK    4  A    between atoms: C22_26  and  O3_27
REMARK    5  A    between atoms: O3_27  and  C23_28
REMARK    6  A    between atoms: C23_28  and  C24_29
REMARK    7  A    between atoms: C24_29  and  C25_30
REMARK    8  A    between atoms: C25_30  and  C26_31
REMARK    9  A    between atoms: C26_31  and  O4_32
REMARK   10  A    between atoms: O4_32  and  C27_33
REMARK   11  A    between atoms: C30_36  and  C31_37
REMARK                            x       y       z     vdW  Elec       q    Type
REMARK                         _______ _______ _______ _____ _____    ______ ____
ROOT
ATOM      1  C2  UNL     1      19.366  57.586  -0.951  0.00  0.00    +0.172 A 
ATOM      2  C3  UNL     1      18.437  56.604  -0.562  0.00  0.00    +0.040 A 
ATOM      3  C4  UNL     1      18.355  56.195   0.770  0.00  0.00    +0.005 A 
ATOM      4  C5  UNL     1      19.210  56.743   1.738  0.00  0.00    +0.018 A 
ATOM      5  C21 UNL     1      20.124  57.740   1.351  0.00  0.00    +0.041 A 
ATOM      6  C22 UNL     1      20.208  58.164   0.010  0.00  0.00    +0.172 A 
ENDROOT
BRANCH   4   7
ATOM      7  C6  UNL     1      19.129  56.335   3.166  0.00  0.00    +0.079 C 
ATOM      8  N1  UNL     1      18.094  56.733   3.836  0.00  0.00    -0.172 NA
ATOM      9  N2  UNL     1      17.790  56.399   5.168  0.00  0.00    -0.222 N 
ATOM     10  C14 UNL     1      18.640  55.710   5.897  0.00  0.00    +0.253 C 
ATOM     11  O2  UNL     1      18.399  55.410   7.244  0.00  0.00    -0.271 OA
ATOM     12  C15 UNL     1      19.957  55.222   5.343  0.00  0.00    +0.091 C 
ATOM     13  C16 UNL     1      21.109  55.805   6.195  0.00  0.00    +0.035 C 
ATOM     14  C17 UNL     1      22.425  55.317   5.666  0.00  0.00    -0.030 C 
ATOM     15  C18 UNL     1      22.645  55.356   4.350  0.00  0.00    -0.030 C 
ATOM     16  C19 UNL     1      21.598  55.948   3.449  0.00  0.00    +0.032 C 
ATOM     17  C20 UNL     1      20.170  55.434   3.799  0.00  0.00    +0.056 C 
BRANCH   9  18
ATOM     18  C7  UNL     1      16.526  56.943   5.723  0.00  0.00    +0.108 C 
ATOM     19  C8  UNL     1      16.080  58.178   4.900  0.00  0.00    +0.024 C 
ATOM     20  C9  UNL     1      15.156  57.861   3.711  0.00  0.00    +0.002 C 
ATOM     21  C10 UNL     1      13.671  57.876   4.114  0.00  0.00    +0.000 C 
ATOM     22  C11 UNL     1      13.228  56.632   4.892  0.00  0.00    +0.000 C 
ATOM     23  C12 UNL     1      14.033  56.382   6.180  0.00  0.00    +0.002 C 
ATOM     24  C13 UNL     1      15.443  55.838   5.881  0.00  0.00    +0.024 C 
ENDBRANCH   9  18
ENDBRANCH   4   7
BRANCH   1  26
ATOM     25  C1  UNL     1      19.658  57.161  -3.401  0.00  0.00    +0.253 C 
ATOM     26  O1  UNL     1      19.472  58.024  -2.280  0.00  0.00    -0.468 OA
ENDBRANCH   1  26
BRANCH   6  27
ATOM     27  O3  UNL     1      21.100  59.166  -0.408  0.00  0.00    -0.472 OA
BRANCH  27  28
ATOM     28  C23 UNL     1      21.098  60.524   0.036  0.00  0.00    +0.206 C 
BRANCH  28  29
ATOM     29  C24 UNL     1      22.365  61.265  -0.407  0.00  0.00    +0.051 C 
BRANCH  29  30
ATOM     30  C25 UNL     1      22.231  62.783  -0.237  0.00  0.00    +0.051 C 
BRANCH  30  31
ATOM     31  C26 UNL     1      22.229  63.486  -1.598  0.00  0.00    +0.206 C 
BRANCH  31  32
ATOM     32  O4  UNL     1      20.912  63.519  -2.147  0.00  0.00    -0.475 OA
BRANCH  32  33
ATOM     33  C27 UNL     1      20.423  62.668  -3.153  0.00  0.00    +0.139 A 
ATOM     34  C28 UNL     1      21.181  61.541  -3.488  0.00  0.00    +0.037 A 
ATOM     35  C29 UNL     1      20.726  60.633  -4.449  0.00  0.00    +0.006 A 
ATOM     36  C30 UNL     1      19.499  60.842  -5.103  0.00  0.00    +0.040 A 
ATOM     37  C32 UNL     1      18.747  61.988  -4.782  0.00  0.00    +0.006 A 
ATOM     38  C33 UNL     1      19.203  62.891  -3.817  0.00  0.00    +0.037 A 
BRANCH  36  39
ATOM     39  C31 UNL     1      19.004  59.865  -6.105  0.00  0.00    +0.208 A 
ATOM     40  N3  UNL     1      19.755  58.918  -6.710  0.00  0.00    -0.106 NA
ATOM     41  N4  UNL     1      18.927  58.255  -7.500  0.00  0.00    -0.021 NA
ATOM     42  N5  UNL     1      17.713  58.765  -7.396  0.00  0.00    -0.021 NA
ATOM     43  N6  UNL     1      17.726  59.767  -6.533  0.00  0.00    -0.106 NA
ENDBRANCH  36  39
ENDBRANCH  32  33
ENDBRANCH  31  32
ENDBRANCH  30  31
ENDBRANCH  29  30
ENDBRANCH  28  29
ENDBRANCH  27  28
ENDBRANCH   6  27
TORSDOF 11
ENDMDL
MODEL 8
REMARK VINA RESULT:      -7.3      3.287      9.495
REMARK  Name = ./data/4u7t_site_bc02/pdb/l1c2.pdb
REMARK  11 active torsions:
REMARK  status: ('A' for Active; 'I' for Inactive)
REMARK    1  A    between atoms: O1_2  and  C2_3
REMARK    2  A    between atoms: C5_6  and  C6_7
REMARK    3  A    between atoms: N2_9  and  C7_10
REMARK    4  A    between atoms: C22_26  and  O3_27
REMARK    5  A    between atoms: O3_27  and  C23_28
REMARK    6  A    between atoms: C23_28  and  C24_29
REMARK    7  A    between atoms: C24_29  and  C25_30
REMARK    8  A    between atoms: C25_30  and  C26_31
REMARK    9  A    between atoms: C26_31  and  O4_32
REMARK   10  A    between atoms: O4_32  and  C27_33
REMARK   11  A    between atoms: C30_36  and  C31_37
REMARK                            x       y       z     vdW  Elec       q    Type
REMARK                         _______ _______ _______ _____ _____    ______ ____
ROOT
ATOM      1  C2  UNL     1      17.861  55.130  -1.203  0.00  0.00    +0.172 A 
ATOM      2  C3  UNL     1      17.607  55.048   0.179  0.00  0.00    +0.040 A 
ATOM      3  C4  UNL     1      18.031  56.063   1.038  0.00  0.00    +0.005 A 
ATOM      4  C5  UNL     1      18.732  57.172   0.540  0.00  0.00    +0.018 A 
ATOM      5  C21 UNL     1      18.966  57.263  -0.844  0.00  0.00    +0.041 A 
ATOM      6  C22 UNL     1      18.535  56.246  -1.719  0.00  0.00    +0.172 A 
ENDROOT
BRANCH   4   7
ATOM      7  C6  UNL     1      19.177  58.275   1.434  0.00  0.00    +0.079 C 
ATOM      8  N1  UNL     1      20.171  58.999   1.029  0.00  0.00    -0.172 NA
ATOM      9  N2  UNL     1      20.696  60.128   1.683  0.00  0.00    -0.222 N 
ATOM     10  C14 UNL     1      20.257  60.477   2.872  0.00  0.00    +0.253 C 
ATOM     11  O2  UNL     1      20.796  61.559   3.581  0.00  0.00    -0.271 OA
ATOM     12  C15 UNL     1      19.161  59.715   3.576  0.00  0.00    +0.091 C 
ATOM     13  C16 UNL     1      19.697  59.201   4.933  0.00  0.00    +0.035 C 
ATOM     14  C17 UNL     1      18.614  58.453   5.653  0.00  0.00    -0.030 C 
ATOM     15  C18 UNL     1      17.890  57.558   4.977  0.00  0.00    -0.030 C 
ATOM     16  C19 UNL     1      18.227  57.279   3.539  0.00  0.00    +0.032 C 
ATOM     17  C20 UNL     1      18.459  58.590   2.730  0.00  0.00    +0.056 C 
BRANCH   9  18
ATOM     18  C7  UNL     1      21.820  60.828   1.014  0.00  0.00    +0.108 C 
ATOM     19  C8  UNL     1      21.889  60.407  -0.476  0.00  0.00    +0.024 C 
ATOM     20  C9  UNL     1      21.068  61.289  -1.433  0.00  0.00    +0.002 C 
ATOM     21  C10 UNL     1      21.886  62.478  -1.967  0.00  0.00    +0.000 C 
ATOM     22  C11 UNL     1      22.066  63.612  -0.950  0.00  0.00    +0.000 C 
ATOM     23  C12 UNL     1      22.732  63.170   0.365  0.00  0.00    +0.002 C 
ATOM     24  C13 UNL     1      21.769  62.364   1.256  0.00  0.00    +0.024 C 
ENDBRANCH   9  18
ENDBRANCH   4   7
BRANCH   1  26
ATOM     25  C1  UNL     1      16.451  54.309  -3.101  0.00  0.00    +0.253 C 
ATOM     26  O1  UNL     1      17.446  54.130  -2.095  0.00  0.00    -0.468 OA
ENDBRANCH   1  26
BRANCH   6  27
ATOM     27  O3  UNL     1      18.741  56.310  -3.108  0.00  0.00    -0.472 OA
BRANCH  27  28
ATOM     28  C23 UNL     1      19.615  57.219  -3.781  0.00  0.00    +0.206 C 
BRANCH  28  29
ATOM     29  C24 UNL     1      19.999  56.706  -5.173  0.00  0.00    +0.051 C 
BRANCH  29  30
ATOM     30  C25 UNL     1      19.164  57.364  -6.278  0.00  0.00    +0.051 C 
BRANCH  30  31
ATOM     31  C26 UNL     1      19.598  58.817  -6.497  0.00  0.00    +0.206 C 
BRANCH  31  32
ATOM     32  O4  UNL     1      18.555  59.717  -6.124  0.00  0.00    -0.475 OA
BRANCH  32  33
ATOM     33  C27 UNL     1      18.730  60.945  -5.465  0.00  0.00    +0.139 A 
ATOM     34  C28 UNL     1      20.012  61.504  -5.444  0.00  0.00    +0.037 A 
ATOM     35  C29 UNL     1      20.241  62.745  -4.842  0.00  0.00    +0.006 A 
ATOM     36  C30 UNL     1      19.187  63.451  -4.238  0.00  0.00    +0.040 A 
ATOM     37  C32 UNL     1      17.901  62.878  -4.239  0.00  0.00    +0.006 A 
ATOM     38  C33 UNL     1      17.674  61.639  -4.846  0.00  0.00    +0.037 A 
BRANCH  36  39
ATOM     39  C31 UNL     1      19.425  64.780  -3.622  0.00  0.00    +0.208 A 
ATOM     40  N3  UNL     1      20.616  65.416  -3.573  0.00  0.00    -0.106 NA
ATOM     41  N4  UNL     1      20.383  66.568  -2.968  0.00  0.00    -0.021 NA
ATOM     42  N5  UNL     1      19.104  66.650  -2.649  0.00  0.00    -0.021 NA
ATOM     43  N6  UNL     1      18.479  65.553  -3.045  0.00  0.00    -0.106 NA
ENDBRANCH  36  39
ENDBRANCH  32  33
ENDBRANCH  31  32
ENDBRANCH  30  31
ENDBRANCH  29  30
ENDBRANCH  28  29
ENDBRANCH  27  28
ENDBRANCH   6  27
TORSDOF 11
ENDMDL
