MODEL 1
REMARK VINA RESULT:      -2.2      0.000      0.000
REMARK  Name = ./data/4u7t_site_bc02/pdb/l0c2.pdb
REMARK  11 active torsions:
REMARK  status: ('A' for Active; 'I' for Inactive)
REMARK    1  A    between atoms: O1_2  and  C2_3
REMARK    2  A    between atoms: C5_6  and  C6_7
REMARK    3  A    between atoms: N2_9  and  C7_10
REMARK    4  A    between atoms: C19_23  and  O3_24
REMARK    5  A    between atoms: O3_24  and  C20_25
REMARK    6  A    between atoms: C20_25  and  C21_26
REMARK    7  A    between atoms: C21_26  and  C22_27
REMARK    8  A    between atoms: C22_27  and  C23_28
REMARK    9  A    between atoms: C23_28  and  O4_29
REMARK   10  A    between atoms: O4_29  and  C24_30
REMARK   11  A    between atoms: C27_33  and  C28_34
REMARK                            x       y       z     vdW  Elec       q    Type
REMARK                         _______ _______ _______ _____ _____    ______ ____
ROOT
ATOM      1  C2  UNL     1      -0.182  53.717  -4.703  0.00  0.00    +0.172 A 
ATOM      2  C3  UNL     1       1.149  54.104  -4.474  0.00  0.00    +0.040 A 
ATOM      3  C4  UNL     1       1.897  53.506  -3.459  0.00  0.00    +0.005 A 
ATOM      4  C5  UNL     1       1.334  52.514  -2.639  0.00  0.00    +0.019 A 
ATOM      5  C18 UNL     1      -0.003  52.134  -2.872  0.00  0.00    +0.041 A 
ATOM      6  C19 UNL     1      -0.759  52.721  -3.904  0.00  0.00    +0.172 A 
ENDROOT
BRANCH   4   7
ATOM      7  C6  UNL     1       2.104  51.852  -1.543  0.00  0.00    +0.086 C 
ATOM      8  N1  UNL     1       1.608  51.742  -0.351  0.00  0.00    -0.171 NA
ATOM      9  N2  UNL     1       2.497  51.063   0.480  0.00  0.00    -0.222 N 
ATOM     10  C14 UNL     1       3.553  50.725  -0.186  0.00  0.00    +0.257 C 
ATOM     11  O2  UNL     1       4.611  50.005   0.367  0.00  0.00    -0.270 OA
ATOM     12  C15 UNL     1       3.481  51.205  -1.607  0.00  0.00    +0.110 C 
ATOM     13  C16 UNL     1       3.528  50.005  -2.566  0.00  0.00    +0.015 C 
ATOM     14  C17 UNL     1       4.609  52.221  -1.858  0.00  0.00    +0.015 C 
BRANCH   9  15
ATOM     15  C7  UNL     1       2.196  50.765   1.887  0.00  0.00    +0.108 C 
ATOM     16  C8  UNL     1       3.496  50.818   2.721  0.00  0.00    +0.024 C 
ATOM     17  C9  UNL     1       3.389  50.113   4.079  0.00  0.00    +0.002 C 
ATOM     18  C10 UNL     1       2.286  50.680   4.986  0.00  0.00    +0.000 C 
ATOM     19  C11 UNL     1       0.884  50.226   4.549  0.00  0.00    +0.000 C 
ATOM     20  C12 UNL     1       0.209  51.147   3.516  0.00  0.00    +0.002 C 
ATOM     21  C13 UNL     1       1.125  51.741   2.430  0.00  0.00    +0.024 C 
ENDBRANCH   9  15
ENDBRANCH   4   7
BRANCH   1  23
ATOM     22  C1  UNL     1      -0.688  54.184  -7.111  0.00  0.00    +0.253 C 
ATOM     23  O1  UNL     1      -0.962  54.295  -5.717  0.00  0.00    -0.468 OA
ENDBRANCH   1  23
BRANCH   6  24
ATOM     24  O3  UNL     1      -2.088  52.348  -4.172  0.00  0.00    -0.472 OA
BRANCH  24  25
ATOM     25  C20 UNL     1      -3.195  52.504  -3.283  0.00  0.00    +0.206 C 
BRANCH  25  26
ATOM     26  C21 UNL     1      -4.110  51.273  -3.338  0.00  0.00    +0.051 C 
BRANCH  26  27
ATOM     27  C22 UNL     1      -3.696  50.189  -2.331  0.00  0.00    +0.051 C 
BRANCH  27  28
ATOM     28  C23 UNL     1      -4.692  50.051  -1.173  0.00  0.00    +0.206 C 
BRANCH  28  29
ATOM     29  O4  UNL     1      -4.643  51.206  -0.336  0.00  0.00    -0.475 OA
BRANCH  29  30
ATOM     30  C24 UNL     1      -4.475  51.196   1.059  0.00  0.00    +0.139 A 
ATOM     31  C25 UNL     1      -5.553  51.086   1.957  0.00  0.00    +0.037 A 
ATOM     32  C26 UNL     1      -5.326  51.076   3.336  0.00  0.00    +0.006 A 
ATOM     33  C27 UNL     1      -4.019  51.171   3.848  0.00  0.00    +0.040 A 
ATOM     34  C29 UNL     1      -2.947  51.281   2.946  0.00  0.00    +0.006 A 
ATOM     35  C30 UNL     1      -3.176  51.292   1.568  0.00  0.00    +0.037 A 
BRANCH  33  36
ATOM     36  C28 UNL     1      -3.778  51.152   5.312  0.00  0.00    +0.208 A 
ATOM     37  N3  UNL     1      -2.600  51.427   5.912  0.00  0.00    -0.106 NA
ATOM     38  N4  UNL     1      -2.817  51.293   7.209  0.00  0.00    -0.021 NA
ATOM     39  N5  UNL     1      -4.076  50.950   7.413  0.00  0.00    -0.021 NA
ATOM     40  N6  UNL     1      -4.701  50.853   6.252  0.00  0.00    -0.106 NA
ENDBRANCH  33  36
ENDBRANCH  29  30
ENDBRANCH  28  29
ENDBRANCH  27  28
ENDBRANCH  26  27
ENDBRANCH  25  26
ENDBRANCH  24  25
ENDBRANCH   6  24
TORSDOF 11
ENDMDL
