MODEL 1
REMARK VINA RESULT:      -7.6      0.000      0.000
REMARK  Name = ./data/4u7t_site_bc02/pdb/l1c0.pdb
REMARK  11 active torsions:
REMARK  status: ('A' for Active; 'I' for Inactive)
REMARK    1  A    between atoms: O1_2  and  C2_3
REMARK    2  A    between atoms: C5_6  and  C6_7
REMARK    3  A    between atoms: N2_9  and  C7_10
REMARK    4  A    between atoms: C22_26  and  O3_27
REMARK    5  A    between atoms: O3_27  and  C23_28
REMARK    6  A    between atoms: C23_28  and  C24_29
REMARK    7  A    between atoms: C24_29  and  C25_30
REMARK    8  A    between atoms: C25_30  and  C26_31
REMARK    9  A    between atoms: C26_31  and  O4_32
REMARK   10  A    between atoms: O4_32  and  C27_33
REMARK   11  A    between atoms: C30_36  and  C31_37
REMARK                            x       y       z     vdW  Elec       q    Type
REMARK                         _______ _______ _______ _____ _____    ______ ____
ROOT
ATOM      1  C2  UNL     1      19.643  57.938  -4.838  0.00  0.00    +0.172 A 
ATOM      2  C3  UNL     1      19.891  57.234  -3.648  0.00  0.00    +0.040 A 
ATOM      3  C4  UNL     1      20.340  57.905  -2.511  0.00  0.00    +0.005 A 
ATOM      4  C5  UNL     1      20.548  59.296  -2.526  0.00  0.00    +0.018 A 
ATOM      5  C21 UNL     1      20.285  59.998  -3.718  0.00  0.00    +0.041 A 
ATOM      6  C22 UNL     1      19.855  59.323  -4.880  0.00  0.00    +0.172 A 
ENDROOT
BRANCH   4   7
ATOM      7  C6  UNL     1      21.031  59.989  -1.292  0.00  0.00    +0.079 C 
ATOM      8  N1  UNL     1      20.485  59.685  -0.152  0.00  0.00    -0.172 NA
ATOM      9  N2  UNL     1      20.849  60.264   1.081  0.00  0.00    -0.222 N 
ATOM     10  C14 UNL     1      21.956  60.963   1.196  0.00  0.00    +0.253 C 
ATOM     11  O2  UNL     1      22.345  61.442   2.452  0.00  0.00    -0.271 OA
ATOM     12  C15 UNL     1      22.857  61.176  -0.015  0.00  0.00    +0.091 C 
ATOM     13  C16 UNL     1      23.625  62.513   0.025  0.00  0.00    +0.035 C 
ATOM     14  C17 UNL     1      22.651  63.651   0.021  0.00  0.00    -0.030 C 
ATOM     15  C18 UNL     1      21.575  63.602  -0.774  0.00  0.00    -0.030 C 
ATOM     16  C19 UNL     1      21.354  62.459  -1.738  0.00  0.00    +0.032 C 
ATOM     17  C20 UNL     1      22.046  61.112  -1.340  0.00  0.00    +0.056 C 
BRANCH   9  18
ATOM     18  C7  UNL     1      19.965  59.976   2.231  0.00  0.00    +0.108 C 
ATOM     19  C8  UNL     1      19.195  58.644   2.023  0.00  0.00    +0.024 C 
ATOM     20  C9  UNL     1      17.808  58.655   2.687  0.00  0.00    +0.002 C 
ATOM     21  C10 UNL     1      17.853  58.435   4.202  0.00  0.00    +0.000 C 
ATOM     22  C11 UNL     1      18.660  59.502   4.953  0.00  0.00    +0.000 C 
ATOM     23  C12 UNL     1      20.176  59.324   4.764  0.00  0.00    +0.002 C 
ATOM     24  C13 UNL     1      20.751  60.095   3.565  0.00  0.00    +0.024 C 
ENDBRANCH   9  18
ENDBRANCH   4   7
BRANCH   1  26
ATOM     25  C1  UNL     1      19.966  57.135  -7.185  0.00  0.00    +0.253 C 
ATOM     26  O1  UNL     1      19.190  57.297  -6.002  0.00  0.00    -0.468 OA
ENDBRANCH   1  26
BRANCH   6  27
ATOM     27  O3  UNL     1      19.621  59.988  -6.096  0.00  0.00    -0.472 OA
BRANCH  27  28
ATOM     28  C23 UNL     1      19.286  61.368  -6.242  0.00  0.00    +0.206 C 
BRANCH  28  29
ATOM     29  C24 UNL     1      18.259  61.788  -5.187  0.00  0.00    +0.051 C 
BRANCH  29  30
ATOM     30  C25 UNL     1      18.660  63.105  -4.513  0.00  0.00    +0.051 C 
BRANCH  30  31
ATOM     31  C26 UNL     1      18.187  63.156  -3.061  0.00  0.00    +0.206 C 
BRANCH  31  32
ATOM     32  O4  UNL     1      18.738  64.307  -2.423  0.00  0.00    -0.475 OA
BRANCH  32  33
ATOM     33  C27 UNL     1      19.109  65.486  -3.083  0.00  0.00    +0.139 A 
ATOM     34  C28 UNL     1      18.166  66.512  -3.180  0.00  0.00    +0.037 A 
ATOM     35  C29 UNL     1      18.468  67.695  -3.855  0.00  0.00    +0.006 A 
ATOM     36  C30 UNL     1      19.736  67.886  -4.436  0.00  0.00    +0.040 A 
ATOM     37  C32 UNL     1      20.695  66.860  -4.316  0.00  0.00    +0.006 A 
ATOM     38  C33 UNL     1      20.383  65.669  -3.651  0.00  0.00    +0.037 A 
BRANCH  36  39
ATOM     39  C31 UNL     1      20.053  69.140  -5.167  0.00  0.00    +0.208 A 
ATOM     40  N3  UNL     1      19.498  70.348  -4.924  0.00  0.00    -0.106 NA
ATOM     41  N4  UNL     1      20.071  71.183  -5.773  0.00  0.00    -0.021 NA
ATOM     42  N5  UNL     1      20.944  70.528  -6.518  0.00  0.00    -0.021 NA
ATOM     43  N6  UNL     1      20.959  69.256  -6.164  0.00  0.00    -0.106 NA
ENDBRANCH  36  39
ENDBRANCH  32  33
ENDBRANCH  31  32
ENDBRANCH  30  31
ENDBRANCH  29  30
ENDBRANCH  28  29
ENDBRANCH  27  28
ENDBRANCH   6  27
TORSDOF 11
ENDMDL
