MODEL 1
REMARK VINA RESULT:      -2.0      0.000      0.000
REMARK  Name = ./data/4u7t_site_bc02/pdb/l0c1.pdb
REMARK  11 active torsions:
REMARK  status: ('A' for Active; 'I' for Inactive)
REMARK    1  A    between atoms: O1_2  and  C2_3
REMARK    2  A    between atoms: C5_6  and  C6_7
REMARK    3  A    between atoms: N2_9  and  C7_10
REMARK    4  A    between atoms: C19_23  and  O3_24
REMARK    5  A    between atoms: O3_24  and  C20_25
REMARK    6  A    between atoms: C20_25  and  C21_26
REMARK    7  A    between atoms: C21_26  and  C22_27
REMARK    8  A    between atoms: C22_27  and  C23_28
REMARK    9  A    between atoms: C23_28  and  O4_29
REMARK   10  A    between atoms: O4_29  and  C24_30
REMARK   11  A    between atoms: C27_33  and  C28_34
REMARK                            x       y       z     vdW  Elec       q    Type
REMARK                         _______ _______ _______ _____ _____    ______ ____
ROOT
ATOM      1  C2  UNL     1      19.931  80.263   7.272  0.00  0.00    +0.172 A 
ATOM      2  C3  UNL     1      19.004  79.312   7.731  0.00  0.00    +0.040 A 
ATOM      3  C4  UNL     1      17.676  79.352   7.300  0.00  0.00    +0.005 A 
ATOM      4  C5  UNL     1      17.238  80.346   6.407  0.00  0.00    +0.019 A 
ATOM      5  C18 UNL     1      18.180  81.264   5.915  0.00  0.00    +0.041 A 
ATOM      6  C19 UNL     1      19.519  81.239   6.352  0.00  0.00    +0.172 A 
ENDROOT
BRANCH   4   7
ATOM      7  C6  UNL     1      15.794  80.440   6.054  0.00  0.00    +0.086 C 
ATOM      8  N1  UNL     1      15.149  79.417   5.589  0.00  0.00    -0.171 NA
ATOM      9  N2  UNL     1      13.783  79.696   5.550  0.00  0.00    -0.222 N 
ATOM     10  C14 UNL     1      13.561  80.891   5.992  0.00  0.00    +0.257 C 
ATOM     11  O2  UNL     1      12.286  81.443   6.090  0.00  0.00    -0.270 OA
ATOM     12  C15 UNL     1      14.838  81.586   6.368  0.00  0.00    +0.110 C 
ATOM     13  C16 UNL     1      15.037  82.809   5.455  0.00  0.00    +0.015 C 
ATOM     14  C17 UNL     1      14.832  81.952   7.865  0.00  0.00    +0.015 C 
BRANCH   9  15
ATOM     15  C7  UNL     1      12.752  78.761   5.073  0.00  0.00    +0.108 C 
ATOM     16  C8  UNL     1      12.276  79.126   3.638  0.00  0.00    +0.024 C 
ATOM     17  C9  UNL     1      11.832  77.893   2.835  0.00  0.00    +0.002 C 
ATOM     18  C10 UNL     1      10.452  77.354   3.228  0.00  0.00    +0.000 C 
ATOM     19  C11 UNL     1      10.360  76.936   4.705  0.00  0.00    +0.000 C 
ATOM     20  C12 UNL     1      10.252  78.154   5.635  0.00  0.00    +0.002 C 
ATOM     21  C13 UNL     1      11.611  78.685   6.124  0.00  0.00    +0.024 C 
ENDBRANCH   9  15
ENDBRANCH   4   7
BRANCH   1  23
ATOM     22  C1  UNL     1      21.962  79.136   8.205  0.00  0.00    +0.253 C 
ATOM     23  O1  UNL     1      21.268  80.273   7.706  0.00  0.00    -0.468 OA
ENDBRANCH   1  23
BRANCH   6  24
ATOM     24  O3  UNL     1      20.477  82.171   5.901  0.00  0.00    -0.472 OA
BRANCH  24  25
ATOM     25  C20 UNL     1      20.747  83.438   6.503  0.00  0.00    +0.206 C 
BRANCH  25  26
ATOM     26  C21 UNL     1      19.532  84.369   6.378  0.00  0.00    +0.051 C 
BRANCH  26  27
ATOM     27  C22 UNL     1      18.786  84.470   7.715  0.00  0.00    +0.051 C 
BRANCH  27  28
ATOM     28  C23 UNL     1      18.655  85.925   8.173  0.00  0.00    +0.206 C 
BRANCH  28  29
ATOM     29  O4  UNL     1      17.684  86.610   7.382  0.00  0.00    -0.475 OA
BRANCH  29  30
ATOM     30  C24 UNL     1      16.345  86.835   7.743  0.00  0.00    +0.139 A 
ATOM     31  C25 UNL     1      15.255  86.351   6.996  0.00  0.00    +0.037 A 
ATOM     32  C26 UNL     1      13.943  86.587   7.423  0.00  0.00    +0.006 A 
ATOM     33  C27 UNL     1      13.690  87.317   8.600  0.00  0.00    +0.040 A 
ATOM     34  C29 UNL     1      14.786  87.810   9.332  0.00  0.00    +0.006 A 
ATOM     35  C30 UNL     1      16.096  87.567   8.908  0.00  0.00    +0.037 A 
BRANCH  33  36
ATOM     36  C28 UNL     1      12.293  87.553   9.068  0.00  0.00    +0.208 A 
ATOM     37  N3  UNL     1      11.941  88.342  10.106  0.00  0.00    -0.106 NA
ATOM     38  N4  UNL     1      10.623  88.269  10.184  0.00  0.00    -0.021 NA
ATOM     39  N5  UNL     1      10.165  87.471   9.233  0.00  0.00    -0.021 NA
ATOM     40  N6  UNL     1      11.182  87.008   8.524  0.00  0.00    -0.106 NA
ENDBRANCH  33  36
ENDBRANCH  29  30
ENDBRANCH  28  29
ENDBRANCH  27  28
ENDBRANCH  26  27
ENDBRANCH  25  26
ENDBRANCH  24  25
ENDBRANCH   6  24
TORSDOF 11
ENDMDL
MODEL 2
REMARK VINA RESULT:      -1.1      3.567      9.057
REMARK  Name = ./data/4u7t_site_bc02/pdb/l0c1.pdb
REMARK  11 active torsions:
REMARK  status: ('A' for Active; 'I' for Inactive)
REMARK    1  A    between atoms: O1_2  and  C2_3
REMARK    2  A    between atoms: C5_6  and  C6_7
REMARK    3  A    between atoms: N2_9  and  C7_10
REMARK    4  A    between atoms: C19_23  and  O3_24
REMARK    5  A    between atoms: O3_24  and  C20_25
REMARK    6  A    between atoms: C20_25  and  C21_26
REMARK    7  A    between atoms: C21_26  and  C22_27
REMARK    8  A    between atoms: C22_27  and  C23_28
REMARK    9  A    between atoms: C23_28  and  O4_29
REMARK   10  A    between atoms: O4_29  and  C24_30
REMARK   11  A    between atoms: C27_33  and  C28_34
REMARK                            x       y       z     vdW  Elec       q    Type
REMARK                         _______ _______ _______ _____ _____    ______ ____
ROOT
ATOM      1  C2  UNL     1      12.687  80.994   3.713  0.00  0.00    +0.172 A 
ATOM      2  C3  UNL     1      12.937  82.191   3.021  0.00  0.00    +0.040 A 
ATOM      3  C4  UNL     1      13.517  83.280   3.677  0.00  0.00    +0.005 A 
ATOM      4  C5  UNL     1      13.854  83.204   5.039  0.00  0.00    +0.019 A 
ATOM      5  C18 UNL     1      13.647  81.989   5.713  0.00  0.00    +0.041 A 
ATOM      6  C19 UNL     1      13.053  80.889   5.064  0.00  0.00    +0.172 A 
ENDROOT
BRANCH   4   7
ATOM      7  C6  UNL     1      14.362  84.413   5.745  0.00  0.00    +0.086 C 
ATOM      8  N1  UNL     1      13.558  85.355   6.126  0.00  0.00    -0.171 NA
ATOM      9  N2  UNL     1      14.237  86.255   6.948  0.00  0.00    -0.222 N 
ATOM     10  C14 UNL     1      15.467  85.883   7.091  0.00  0.00    +0.257 C 
ATOM     11  O2  UNL     1      16.386  86.578   7.875  0.00  0.00    -0.270 OA
ATOM     12  C15 UNL     1      15.762  84.637   6.308  0.00  0.00    +0.110 C 
ATOM     13  C16 UNL     1      16.808  84.954   5.224  0.00  0.00    +0.015 C 
ATOM     14  C17 UNL     1      16.203  83.500   7.250  0.00  0.00    +0.015 C 
BRANCH   9  15
ATOM     15  C7  UNL     1      13.633  87.450   7.557  0.00  0.00    +0.108 C 
ATOM     16  C8  UNL     1      13.080  87.143   8.978  0.00  0.00    +0.024 C 
ATOM     17  C9  UNL     1      13.137  88.368   9.907  0.00  0.00    +0.002 C 
ATOM     18  C10 UNL     1      12.048  89.410   9.635  0.00  0.00    +0.000 C 
ATOM     19  C11 UNL     1      12.091  89.978   8.206  0.00  0.00    +0.000 C 
ATOM     20  C12 UNL     1      11.525  88.983   7.182  0.00  0.00    +0.002 C 
ATOM     21  C13 UNL     1      12.583  88.044   6.578  0.00  0.00    +0.024 C 
ENDBRANCH   9  15
ENDBRANCH   4   7
BRANCH   1  23
ATOM     22  C1  UNL     1      10.685  79.783   2.824  0.00  0.00    +0.253 C 
ATOM     23  O1  UNL     1      12.078  79.888   3.096  0.00  0.00    -0.468 OA
ENDBRANCH   1  23
BRANCH   6  24
ATOM     24  O3  UNL     1      12.800  79.669   5.725  0.00  0.00    -0.472 OA
BRANCH  24  25
ATOM     25  C20 UNL     1      13.790  78.836   6.332  0.00  0.00    +0.206 C 
BRANCH  25  26
ATOM     26  C21 UNL     1      14.601  78.089   5.264  0.00  0.00    +0.051 C 
BRANCH  26  27
ATOM     27  C22 UNL     1      15.946  78.784   5.018  0.00  0.00    +0.051 C 
BRANCH  27  28
ATOM     28  C23 UNL     1      16.267  79.788   6.129  0.00  0.00    +0.206 C 
BRANCH  28  29
ATOM     29  O4  UNL     1      17.444  79.393   6.831  0.00  0.00    -0.475 OA
BRANCH  29  30
ATOM     30  C24 UNL     1      18.626  80.146   6.936  0.00  0.00    +0.139 A 
ATOM     31  C25 UNL     1      18.717  81.494   6.542  0.00  0.00    +0.037 A 
ATOM     32  C26 UNL     1      19.917  82.197   6.695  0.00  0.00    +0.006 A 
ATOM     33  C27 UNL     1      21.055  81.569   7.237  0.00  0.00    +0.040 A 
ATOM     34  C29 UNL     1      20.959  80.216   7.613  0.00  0.00    +0.006 A 
ATOM     35  C30 UNL     1      19.757  79.517   7.466  0.00  0.00    +0.037 A 
BRANCH  33  36
ATOM     36  C28 UNL     1      22.331  82.321   7.419  0.00  0.00    +0.208 A 
ATOM     37  N3  UNL     1      23.096  82.302   8.531  0.00  0.00    -0.106 NA
ATOM     38  N4  UNL     1      24.120  83.100   8.279  0.00  0.00    -0.021 NA
ATOM     39  N5  UNL     1      24.005  83.597   7.059  0.00  0.00    -0.021 NA
ATOM     40  N6  UNL     1      22.900  83.133   6.499  0.00  0.00    -0.106 NA
ENDBRANCH  33  36
ENDBRANCH  29  30
ENDBRANCH  28  29
ENDBRANCH  27  28
ENDBRANCH  26  27
ENDBRANCH  25  26
ENDBRANCH  24  25
ENDBRANCH   6  24
TORSDOF 11
ENDMDL
MODEL 3
REMARK VINA RESULT:      -0.0      1.793      2.498
REMARK  Name = ./data/4u7t_site_bc02/pdb/l0c1.pdb
REMARK  11 active torsions:
REMARK  status: ('A' for Active; 'I' for Inactive)
REMARK    1  A    between atoms: O1_2  and  C2_3
REMARK    2  A    between atoms: C5_6  and  C6_7
REMARK    3  A    between atoms: N2_9  and  C7_10
REMARK    4  A    between atoms: C19_23  and  O3_24
REMARK    5  A    between atoms: O3_24  and  C20_25
REMARK    6  A    between atoms: C20_25  and  C21_26
REMARK    7  A    between atoms: C21_26  and  C22_27
REMARK    8  A    between atoms: C22_27  and  C23_28
REMARK    9  A    between atoms: C23_28  and  O4_29
REMARK   10  A    between atoms: O4_29  and  C24_30
REMARK   11  A    between atoms: C27_33  and  C28_34
REMARK                            x       y       z     vdW  Elec       q    Type
REMARK                         _______ _______ _______ _____ _____    ______ ____
ROOT
ATOM      1  C2  UNL     1      19.365  80.738   6.849  0.00  0.00    +0.172 A 
ATOM      2  C3  UNL     1      18.695  79.523   7.067  0.00  0.00    +0.040 A 
ATOM      3  C4  UNL     1      17.355  79.377   6.699  0.00  0.00    +0.005 A 
ATOM      4  C5  UNL     1      16.650  80.441   6.111  0.00  0.00    +0.019 A 
ATOM      5  C18 UNL     1      17.338  81.637   5.852  0.00  0.00    +0.041 A 
ATOM      6  C19 UNL     1      18.686  81.799   6.230  0.00  0.00    +0.172 A 
ENDROOT
BRANCH   4   7
ATOM      7  C6  UNL     1      15.193  80.301   5.836  0.00  0.00    +0.086 C 
ATOM      8  N1  UNL     1      14.602  81.045   4.954  0.00  0.00    -0.171 NA
ATOM      9  N2  UNL     1      13.309  80.573   4.726  0.00  0.00    -0.222 N 
ATOM     10  C14 UNL     1      13.081  79.531   5.458  0.00  0.00    +0.257 C 
ATOM     11  O2  UNL     1      11.878  78.829   5.430  0.00  0.00    -0.270 OA
ATOM     12  C15 UNL     1      14.261  79.196   6.324  0.00  0.00    +0.110 C 
ATOM     13  C16 UNL     1      13.864  79.349   7.803  0.00  0.00    +0.015 C 
ATOM     14  C17 UNL     1      14.793  77.790   5.989  0.00  0.00    +0.015 C 
BRANCH   9  15
ATOM     15  C7  UNL     1      12.351  81.180   3.789  0.00  0.00    +0.108 C 
ATOM     16  C8  UNL     1      11.644  80.099   2.923  0.00  0.00    +0.024 C 
ATOM     17  C9  UNL     1      10.220  80.511   2.517  0.00  0.00    +0.002 C 
ATOM     18  C10 UNL     1      10.165  81.547   1.390  0.00  0.00    +0.000 C 
ATOM     19  C11 UNL     1      10.888  82.860   1.733  0.00  0.00    +0.000 C 
ATOM     20  C12 UNL     1      12.414  82.708   1.645  0.00  0.00    +0.002 C 
ATOM     21  C13 UNL     1      13.074  82.284   2.969  0.00  0.00    +0.024 C 
ENDBRANCH   9  15
ENDBRANCH   4   7
BRANCH   1  23
ATOM     22  C1  UNL     1      21.502  79.959   7.893  0.00  0.00    +0.253 C 
ATOM     23  O1  UNL     1      20.703  80.934   7.232  0.00  0.00    -0.468 OA
ENDBRANCH   1  23
BRANCH   6  24
ATOM     24  O3  UNL     1      19.391  83.001   6.013  0.00  0.00    -0.472 OA
BRANCH  24  25
ATOM     25  C20 UNL     1      19.867  83.877   7.037  0.00  0.00    +0.206 C 
BRANCH  25  26
ATOM     26  C21 UNL     1      18.760  84.840   7.488  0.00  0.00    +0.051 C 
BRANCH  26  27
ATOM     27  C22 UNL     1      19.009  85.321   8.924  0.00  0.00    +0.051 C 
BRANCH  27  28
ATOM     28  C23 UNL     1      18.367  86.688   9.174  0.00  0.00    +0.206 C 
BRANCH  28  29
ATOM     29  O4  UNL     1      17.345  86.942   8.211  0.00  0.00    -0.475 OA
BRANCH  29  30
ATOM     30  C24 UNL     1      16.026  87.331   8.500  0.00  0.00    +0.139 A 
ATOM     31  C25 UNL     1      14.910  86.845   7.794  0.00  0.00    +0.037 A 
ATOM     32  C26 UNL     1      13.618  87.251   8.148  0.00  0.00    +0.006 A 
ATOM     33  C27 UNL     1      13.412  88.157   9.207  0.00  0.00    +0.040 A 
ATOM     34  C29 UNL     1      14.536  88.649   9.895  0.00  0.00    +0.006 A 
ATOM     35  C30 UNL     1      15.826  88.236   9.546  0.00  0.00    +0.037 A 
BRANCH  33  36
ATOM     36  C28 UNL     1      12.036  88.577   9.598  0.00  0.00    +0.208 A 
ATOM     37  N3  UNL     1      11.313  89.544   8.992  0.00  0.00    -0.106 NA
ATOM     38  N4  UNL     1      10.165  89.601   9.647  0.00  0.00    -0.021 NA
ATOM     39  N5  UNL     1      10.165  88.706  10.621  0.00  0.00    -0.021 NA
ATOM     40  N6  UNL     1      11.317  88.055  10.618  0.00  0.00    -0.106 NA
ENDBRANCH  33  36
ENDBRANCH  29  30
ENDBRANCH  28  29
ENDBRANCH  27  28
ENDBRANCH  26  27
ENDBRANCH  25  26
ENDBRANCH  24  25
ENDBRANCH   6  24
TORSDOF 11
ENDMDL
