MODEL 1
REMARK VINA RESULT:      -6.7      0.000      0.000
REMARK  Name = ./data/4u7t_site_bc02/pdb/l1c2.pdb
REMARK  11 active torsions:
REMARK  status: ('A' for Active; 'I' for Inactive)
REMARK    1  A    between atoms: O1_2  and  C2_3
REMARK    2  A    between atoms: C5_6  and  C6_7
REMARK    3  A    between atoms: N2_9  and  C7_10
REMARK    4  A    between atoms: C22_26  and  O3_27
REMARK    5  A    between atoms: O3_27  and  C23_28
REMARK    6  A    between atoms: C23_28  and  C24_29
REMARK    7  A    between atoms: C24_29  and  C25_30
REMARK    8  A    between atoms: C25_30  and  C26_31
REMARK    9  A    between atoms: C26_31  and  O4_32
REMARK   10  A    between atoms: O4_32  and  C27_33
REMARK   11  A    between atoms: C30_36  and  C31_37
REMARK                            x       y       z     vdW  Elec       q    Type
REMARK                         _______ _______ _______ _____ _____    ______ ____
ROOT
ATOM      1  C2  UNL     1      31.969 102.249 -11.483  0.00  0.00    +0.172 A 
ATOM      2  C3  UNL     1      32.538 101.287 -12.340  0.00  0.00    +0.040 A 
ATOM      3  C4  UNL     1      33.800 100.754 -12.067  0.00  0.00    +0.005 A 
ATOM      4  C5  UNL     1      34.505 101.159 -10.926  0.00  0.00    +0.018 A 
ATOM      5  C21 UNL     1      33.957 102.145 -10.092  0.00  0.00    +0.041 A 
ATOM      6  C22 UNL     1      32.682 102.682 -10.353  0.00  0.00    +0.172 A 
ENDROOT
BRANCH   4   7
ATOM      7  C6  UNL     1      35.822 100.587 -10.593  0.00  0.00    +0.079 C 
ATOM      8  N1  UNL     1      35.869  99.674  -9.666  0.00  0.00    -0.172 NA
ATOM      9  N2  UNL     1      37.021  98.898  -9.391  0.00  0.00    -0.222 N 
ATOM     10  C14 UNL     1      38.188  99.243  -9.896  0.00  0.00    +0.253 C 
ATOM     11  O2  UNL     1      39.333  98.478  -9.663  0.00  0.00    -0.271 OA
ATOM     12  C15 UNL     1      38.309 100.505 -10.716  0.00  0.00    +0.091 C 
ATOM     13  C16 UNL     1      38.599 101.702  -9.789  0.00  0.00    +0.035 C 
ATOM     14  C17 UNL     1      38.380 103.035 -10.453  0.00  0.00    -0.030 C 
ATOM     15  C18 UNL     1      37.614 103.186 -11.542  0.00  0.00    -0.030 C 
ATOM     16  C19 UNL     1      37.104 102.018 -12.342  0.00  0.00    +0.032 C 
ATOM     17  C20 UNL     1      37.016 100.714 -11.522  0.00  0.00    +0.056 C 
BRANCH   9  18
ATOM     18  C7  UNL     1      36.813  97.668  -8.599  0.00  0.00    +0.108 C 
ATOM     19  C8  UNL     1      37.023  96.401  -9.457  0.00  0.00    +0.024 C 
ATOM     20  C9  UNL     1      36.899  95.090  -8.662  0.00  0.00    +0.002 C 
ATOM     21  C10 UNL     1      35.434  94.742  -8.343  0.00  0.00    +0.000 C 
ATOM     22  C11 UNL     1      34.904  95.333  -7.022  0.00  0.00    +0.000 C 
ATOM     23  C12 UNL     1      35.400  96.747  -6.662  0.00  0.00    +0.002 C 
ATOM     24  C13 UNL     1      35.456  97.719  -7.856  0.00  0.00    +0.024 C 
ENDBRANCH   9  18
ENDBRANCH   4   7
BRANCH   1  26
ATOM     25  C1  UNL     1      29.597 102.063 -12.260  0.00  0.00    +0.253 C 
ATOM     26  O1  UNL     1      30.694 102.791 -11.714  0.00  0.00    -0.468 OA
ENDBRANCH   1  26
BRANCH   6  27
ATOM     27  O3  UNL     1      32.083 103.631  -9.506  0.00  0.00    -0.472 OA
BRANCH  27  28
ATOM     28  C23 UNL     1      31.404 103.324  -8.289  0.00  0.00    +0.206 C 
BRANCH  28  29
ATOM     29  C24 UNL     1      31.017 101.846  -8.263  0.00  0.00    +0.051 C 
BRANCH  29  30
ATOM     30  C25 UNL     1      31.830 101.081  -7.208  0.00  0.00    +0.051 C 
BRANCH  30  31
ATOM     31  C26 UNL     1      32.559  99.883  -7.828  0.00  0.00    +0.206 C 
BRANCH  31  32
ATOM     32  O4  UNL     1      31.623  98.890  -8.254  0.00  0.00    -0.475 OA
BRANCH  32  33
ATOM     33  C27 UNL     1      30.667  98.268  -7.431  0.00  0.00    +0.139 A 
ATOM     34  C28 UNL     1      29.295  98.591  -7.470  0.00  0.00    +0.037 A 
ATOM     35  C29 UNL     1      28.396  97.962  -6.604  0.00  0.00    +0.006 A 
ATOM     36  C30 UNL     1      28.845  96.988  -5.696  0.00  0.00    +0.040 A 
ATOM     37  C32 UNL     1      30.209  96.658  -5.671  0.00  0.00    +0.006 A 
ATOM     38  C33 UNL     1      31.110  97.292  -6.530  0.00  0.00    +0.037 A 
BRANCH  36  39
ATOM     39  C31 UNL     1      27.892  96.319  -4.783  0.00  0.00    +0.208 A 
ATOM     40  N3  UNL     1      26.563  96.547  -4.746  0.00  0.00    -0.106 NA
ATOM     41  N4  UNL     1      26.091  95.761  -3.793  0.00  0.00    -0.021 NA
ATOM     42  N5  UNL     1      27.080  95.068  -3.259  0.00  0.00    -0.021 NA
ATOM     43  N6  UNL     1      28.216  95.393  -3.854  0.00  0.00    -0.106 NA
ENDBRANCH  36  39
ENDBRANCH  32  33
ENDBRANCH  31  32
ENDBRANCH  30  31
ENDBRANCH  29  30
ENDBRANCH  28  29
ENDBRANCH  27  28
ENDBRANCH   6  27
TORSDOF 11
ENDMDL
MODEL 2
REMARK VINA RESULT:      -6.4      2.311      4.308
REMARK  Name = ./data/4u7t_site_bc02/pdb/l1c2.pdb
REMARK  11 active torsions:
REMARK  status: ('A' for Active; 'I' for Inactive)
REMARK    1  A    between atoms: O1_2  and  C2_3
REMARK    2  A    between atoms: C5_6  and  C6_7
REMARK    3  A    between atoms: N2_9  and  C7_10
REMARK    4  A    between atoms: C22_26  and  O3_27
REMARK    5  A    between atoms: O3_27  and  C23_28
REMARK    6  A    between atoms: C23_28  and  C24_29
REMARK    7  A    between atoms: C24_29  and  C25_30
REMARK    8  A    between atoms: C25_30  and  C26_31
REMARK    9  A    between atoms: C26_31  and  O4_32
REMARK   10  A    between atoms: O4_32  and  C27_33
REMARK   11  A    between atoms: C30_36  and  C31_37
REMARK                            x       y       z     vdW  Elec       q    Type
REMARK                         _______ _______ _______ _____ _____    ______ ____
ROOT
ATOM      1  C2  UNL     1      36.517 101.810 -11.414  0.00  0.00    +0.172 A 
ATOM      2  C3  UNL     1      37.512 100.830 -11.598  0.00  0.00    +0.040 A 
ATOM      3  C4  UNL     1      37.408  99.588 -10.967  0.00  0.00    +0.005 A 
ATOM      4  C5  UNL     1      36.301  99.299 -10.158  0.00  0.00    +0.018 A 
ATOM      5  C21 UNL     1      35.328 100.287  -9.943  0.00  0.00    +0.041 A 
ATOM      6  C22 UNL     1      35.419 101.538 -10.582  0.00  0.00    +0.172 A 
ENDROOT
BRANCH   4   7
ATOM      7  C6  UNL     1      36.146  97.984  -9.509  0.00  0.00    +0.079 C 
ATOM      8  N1  UNL     1      35.767  96.983 -10.250  0.00  0.00    -0.172 NA
ATOM      9  N2  UNL     1      35.778  95.638  -9.811  0.00  0.00    -0.222 N 
ATOM     10  C14 UNL     1      35.931  95.359  -8.532  0.00  0.00    +0.253 C 
ATOM     11  O2  UNL     1      35.974  94.040  -8.078  0.00  0.00    -0.271 OA
ATOM     12  C15 UNL     1      36.033  96.480  -7.526  0.00  0.00    +0.091 C 
ATOM     13  C16 UNL     1      34.623  96.879  -7.048  0.00  0.00    +0.035 C 
ATOM     14  C17 UNL     1      34.588  98.203  -6.334  0.00  0.00    -0.030 C 
ATOM     15  C18 UNL     1      35.547  99.129  -6.476  0.00  0.00    -0.030 C 
ATOM     16  C19 UNL     1      36.856  98.842  -7.160  0.00  0.00    +0.032 C 
ATOM     17  C20 UNL     1      36.771  97.671  -8.161  0.00  0.00    +0.056 C 
BRANCH   9  18
ATOM     18  C7  UNL     1      35.695  94.601 -10.861  0.00  0.00    +0.108 C 
ATOM     19  C8  UNL     1      34.443  93.715 -10.680  0.00  0.00    +0.024 C 
ATOM     20  C9  UNL     1      34.263  92.668 -11.794  0.00  0.00    +0.002 C 
ATOM     21  C10 UNL     1      35.235  91.485 -11.640  0.00  0.00    +0.000 C 
ATOM     22  C11 UNL     1      36.595  91.672 -12.342  0.00  0.00    +0.000 C 
ATOM     23  C12 UNL     1      37.186  93.095 -12.311  0.00  0.00    +0.002 C 
ATOM     24  C13 UNL     1      37.025  93.816 -10.960  0.00  0.00    +0.024 C 
ENDBRANCH   9  18
ENDBRANCH   4   7
BRANCH   1  26
ATOM     25  C1  UNL     1      37.256 104.199 -11.524  0.00  0.00    +0.253 C 
ATOM     26  O1  UNL     1      36.578 103.061 -12.050  0.00  0.00    -0.468 OA
ENDBRANCH   1  26
BRANCH   6  27
ATOM     27  O3  UNL     1      34.433 102.528 -10.430  0.00  0.00    -0.472 OA
BRANCH  27  28
ATOM     28  C23 UNL     1      33.130 102.306  -9.891  0.00  0.00    +0.206 C 
BRANCH  28  29
ATOM     29  C24 UNL     1      32.066 102.662 -10.929  0.00  0.00    +0.051 C 
BRANCH  29  30
ATOM     30  C25 UNL     1      31.134 101.471 -11.196  0.00  0.00    +0.051 C 
BRANCH  30  31
ATOM     31  C26 UNL     1      30.334 101.099  -9.942  0.00  0.00    +0.206 C 
BRANCH  31  32
ATOM     32  O4  UNL     1      30.961 100.020  -9.247  0.00  0.00    -0.475 OA
BRANCH  32  33
ATOM     33  C27 UNL     1      30.364  99.250  -8.232  0.00  0.00    +0.139 A 
ATOM     34  C28 UNL     1      31.089  98.349  -7.425  0.00  0.00    +0.037 A 
ATOM     35  C29 UNL     1      30.434  97.586  -6.454  0.00  0.00    +0.006 A 
ATOM     36  C30 UNL     1      29.050  97.720  -6.257  0.00  0.00    +0.040 A 
ATOM     37  C32 UNL     1      28.334  98.629  -7.052  0.00  0.00    +0.006 A 
ATOM     38  C33 UNL     1      28.985  99.385  -8.029  0.00  0.00    +0.037 A 
BRANCH  36  39
ATOM     39  C31 UNL     1      28.359  96.916  -5.225  0.00  0.00    +0.208 A 
ATOM     40  N3  UNL     1      28.897  96.536  -4.048  0.00  0.00    -0.106 NA
ATOM     41  N4  UNL     1      27.961  95.832  -3.436  0.00  0.00    -0.021 NA
ATOM     42  N5  UNL     1      26.881  95.777  -4.194  0.00  0.00    -0.021 NA
ATOM     43  N6  UNL     1      27.097  96.442  -5.316  0.00  0.00    -0.106 NA
ENDBRANCH  36  39
ENDBRANCH  32  33
ENDBRANCH  31  32
ENDBRANCH  30  31
ENDBRANCH  29  30
ENDBRANCH  28  29
ENDBRANCH  27  28
ENDBRANCH   6  27
TORSDOF 11
ENDMDL
MODEL 3
REMARK VINA RESULT:      -6.2      1.294      2.274
REMARK  Name = ./data/4u7t_site_bc02/pdb/l1c2.pdb
REMARK  11 active torsions:
REMARK  status: ('A' for Active; 'I' for Inactive)
REMARK    1  A    between atoms: O1_2  and  C2_3
REMARK    2  A    between atoms: C5_6  and  C6_7
REMARK    3  A    between atoms: N2_9  and  C7_10
REMARK    4  A    between atoms: C22_26  and  O3_27
REMARK    5  A    between atoms: O3_27  and  C23_28
REMARK    6  A    between atoms: C23_28  and  C24_29
REMARK    7  A    between atoms: C24_29  and  C25_30
REMARK    8  A    between atoms: C25_30  and  C26_31
REMARK    9  A    between atoms: C26_31  and  O4_32
REMARK   10  A    between atoms: O4_32  and  C27_33
REMARK   11  A    between atoms: C30_36  and  C31_37
REMARK                            x       y       z     vdW  Elec       q    Type
REMARK                         _______ _______ _______ _____ _____    ______ ____
ROOT
ATOM      1  C2  UNL     1      33.756 102.801  -9.349  0.00  0.00    +0.172 A 
ATOM      2  C3  UNL     1      34.713 102.483  -8.365  0.00  0.00    +0.040 A 
ATOM      3  C4  UNL     1      35.789 101.648  -8.668  0.00  0.00    +0.005 A 
ATOM      4  C5  UNL     1      35.938 101.130  -9.962  0.00  0.00    +0.018 A 
ATOM      5  C21 UNL     1      34.966 101.414 -10.934  0.00  0.00    +0.041 A 
ATOM      6  C22 UNL     1      33.882 102.263 -10.640  0.00  0.00    +0.172 A 
ENDROOT
BRANCH   4   7
ATOM      7  C6  UNL     1      37.085 100.275 -10.320  0.00  0.00    +0.079 C 
ATOM      8  N1  UNL     1      37.101  99.058  -9.859  0.00  0.00    -0.172 NA
ATOM      9  N2  UNL     1      38.023  98.073 -10.286  0.00  0.00    -0.222 N 
ATOM     10  C14 UNL     1      39.081  98.417 -10.992  0.00  0.00    +0.253 C 
ATOM     11  O2  UNL     1      39.990  97.461 -11.450  0.00  0.00    -0.271 OA
ATOM     12  C15 UNL     1      39.344  99.874 -11.291  0.00  0.00    +0.091 C 
ATOM     13  C16 UNL     1      40.170 100.498 -10.150  0.00  0.00    +0.035 C 
ATOM     14  C17 UNL     1      40.175 102.003 -10.173  0.00  0.00    -0.030 C 
ATOM     15  C18 UNL     1      39.240 102.721 -10.809  0.00  0.00    -0.030 C 
ATOM     16  C19 UNL     1      38.248 102.103 -11.756  0.00  0.00    +0.032 C 
ATOM     17  C20 UNL     1      38.004 100.604 -11.484  0.00  0.00    +0.056 C 
BRANCH   9  18
ATOM     18  C7  UNL     1      37.682  96.670  -9.971  0.00  0.00    +0.108 C 
ATOM     19  C8  UNL     1      36.791  96.046 -11.067  0.00  0.00    +0.024 C 
ATOM     20  C9  UNL     1      36.472  94.559 -10.830  0.00  0.00    +0.002 C 
ATOM     21  C10 UNL     1      35.414  94.362  -9.730  0.00  0.00    +0.000 C 
ATOM     22  C11 UNL     1      35.985  94.237  -8.303  0.00  0.00    +0.000 C 
ATOM     23  C12 UNL     1      37.201  95.125  -7.977  0.00  0.00    +0.002 C 
ATOM     24  C13 UNL     1      37.107  96.556  -8.538  0.00  0.00    +0.024 C 
ENDBRANCH   9  18
ENDBRANCH   4   7
BRANCH   1  26
ATOM     25  C1  UNL     1      31.540 103.300  -8.296  0.00  0.00    +0.253 C 
ATOM     26  O1  UNL     1      32.672 103.655  -9.087  0.00  0.00    -0.468 OA
ENDBRANCH   1  26
BRANCH   6  27
ATOM     27  O3  UNL     1      32.922 102.609 -11.607  0.00  0.00    -0.472 OA
BRANCH  27  28
ATOM     28  C23 UNL     1      32.123 101.677 -12.333  0.00  0.00    +0.206 C 
BRANCH  28  29
ATOM     29  C24 UNL     1      31.232 100.890 -11.372  0.00  0.00    +0.051 C 
BRANCH  29  30
ATOM     30  C25 UNL     1      31.851  99.525 -11.037  0.00  0.00    +0.051 C 
BRANCH  30  31
ATOM     31  C26 UNL     1      32.131  99.395  -9.535  0.00  0.00    +0.206 C 
BRANCH  31  32
ATOM     32  O4  UNL     1      31.008  99.840  -8.772  0.00  0.00    -0.475 OA
BRANCH  32  33
ATOM     33  C27 UNL     1      30.276  99.052  -7.866  0.00  0.00    +0.139 A 
ATOM     34  C28 UNL     1      28.867  99.050  -7.814  0.00  0.00    +0.037 A 
ATOM     35  C29 UNL     1      28.196  98.270  -6.868  0.00  0.00    +0.006 A 
ATOM     36  C30 UNL     1      28.915  97.465  -5.970  0.00  0.00    +0.040 A 
ATOM     37  C32 UNL     1      30.318  97.457  -6.034  0.00  0.00    +0.006 A 
ATOM     38  C33 UNL     1      30.990  98.244  -6.973  0.00  0.00    +0.037 A 
BRANCH  36  39
ATOM     39  C31 UNL     1      28.204  96.636  -4.972  0.00  0.00    +0.208 A 
ATOM     40  N3  UNL     1      28.799  95.851  -4.049  0.00  0.00    -0.106 NA
ATOM     41  N4  UNL     1      27.815  95.281  -3.375  0.00  0.00    -0.021 NA
ATOM     42  N5  UNL     1      26.654  95.693  -3.850  0.00  0.00    -0.021 NA
ATOM     43  N6  UNL     1      26.862  96.537  -4.847  0.00  0.00    -0.106 NA
ENDBRANCH  36  39
ENDBRANCH  32  33
ENDBRANCH  31  32
ENDBRANCH  30  31
ENDBRANCH  29  30
ENDBRANCH  28  29
ENDBRANCH  27  28
ENDBRANCH   6  27
TORSDOF 11
ENDMDL
MODEL 4
REMARK VINA RESULT:      -4.7      1.794      2.614
REMARK  Name = ./data/4u7t_site_bc02/pdb/l1c2.pdb
REMARK  11 active torsions:
REMARK  status: ('A' for Active; 'I' for Inactive)
REMARK    1  A    between atoms: O1_2  and  C2_3
REMARK    2  A    between atoms: C5_6  and  C6_7
REMARK    3  A    between atoms: N2_9  and  C7_10
REMARK    4  A    between atoms: C22_26  and  O3_27
REMARK    5  A    between atoms: O3_27  and  C23_28
REMARK    6  A    between atoms: C23_28  and  C24_29
REMARK    7  A    between atoms: C24_29  and  C25_30
REMARK    8  A    between atoms: C25_30  and  C26_31
REMARK    9  A    between atoms: C26_31  and  O4_32
REMARK   10  A    between atoms: O4_32  and  C27_33
REMARK   11  A    between atoms: C30_36  and  C31_37
REMARK                            x       y       z     vdW  Elec       q    Type
REMARK                         _______ _______ _______ _____ _____    ______ ____
ROOT
ATOM      1  C2  UNL     1      32.678 103.110  -9.590  0.00  0.00    +0.172 A 
ATOM      2  C3  UNL     1      33.768 103.936  -9.255  0.00  0.00    +0.040 A 
ATOM      3  C4  UNL     1      35.064 103.592  -9.645  0.00  0.00    +0.005 A 
ATOM      4  C5  UNL     1      35.290 102.427 -10.390  0.00  0.00    +0.018 A 
ATOM      5  C21 UNL     1      34.211 101.582 -10.692  0.00  0.00    +0.041 A 
ATOM      6  C22 UNL     1      32.900 101.925 -10.312  0.00  0.00    +0.172 A 
ENDROOT
BRANCH   4   7
ATOM      7  C6  UNL     1      36.643 102.057 -10.847  0.00  0.00    +0.079 C 
ATOM      8  N1  UNL     1      37.132 100.923 -10.435  0.00  0.00    -0.172 NA
ATOM      9  N2  UNL     1      38.319 100.351 -10.953  0.00  0.00    -0.222 N 
ATOM     10  C14 UNL     1      39.129 101.070 -11.704  0.00  0.00    +0.253 C 
ATOM     11  O2  UNL     1      40.290 100.520 -12.250  0.00  0.00    -0.271 OA
ATOM     12  C15 UNL     1      38.822 102.526 -11.959  0.00  0.00    +0.091 C 
ATOM     13  C16 UNL     1      39.439 103.391 -10.842  0.00  0.00    +0.035 C 
ATOM     14  C17 UNL     1      38.894 104.793 -10.806  0.00  0.00    -0.030 C 
ATOM     15  C18 UNL     1      37.721 105.130 -11.359  0.00  0.00    -0.030 C 
ATOM     16  C19 UNL     1      36.961 104.207 -12.272  0.00  0.00    +0.032 C 
ATOM     17  C20 UNL     1      37.298 102.718 -12.046  0.00  0.00    +0.056 C 
BRANCH   9  18
ATOM     18  C7  UNL     1      38.534  98.915 -10.675  0.00  0.00    +0.108 C 
ATOM     19  C8  UNL     1      37.803  98.025 -11.705  0.00  0.00    +0.024 C 
ATOM     20  C9  UNL     1      38.060  96.521 -11.510  0.00  0.00    +0.002 C 
ATOM     21  C10 UNL     1      37.272  95.947 -10.319  0.00  0.00    +0.000 C 
ATOM     22  C11 UNL     1      38.008  96.020  -8.966  0.00  0.00    +0.000 C 
ATOM     23  C12 UNL     1      38.860  97.280  -8.722  0.00  0.00    +0.002 C 
ATOM     24  C13 UNL     1      38.203  98.588  -9.199  0.00  0.00    +0.024 C 
ENDBRANCH   9  18
ENDBRANCH   4   7
BRANCH   1  26
ATOM     25  C1  UNL     1      30.362 103.872 -10.154  0.00  0.00    +0.253 C 
ATOM     26  O1  UNL     1      31.359 103.435  -9.234  0.00  0.00    -0.468 OA
ENDBRANCH   1  26
BRANCH   6  27
ATOM     27  O3  UNL     1      31.792 101.127 -10.647  0.00  0.00    -0.472 OA
BRANCH  27  28
ATOM     28  C23 UNL     1      31.201 100.151  -9.790  0.00  0.00    +0.206 C 
BRANCH  28  29
ATOM     29  C24 UNL     1      32.265  99.543  -8.877  0.00  0.00    +0.051 C 
BRANCH  29  30
ATOM     30  C25 UNL     1      33.201  98.612  -9.661  0.00  0.00    +0.051 C 
BRANCH  30  31
ATOM     31  C26 UNL     1      33.885  97.600  -8.734  0.00  0.00    +0.206 C 
BRANCH  31  32
ATOM     32  O4  UNL     1      33.533  97.849  -7.371  0.00  0.00    -0.475 OA
BRANCH  32  33
ATOM     33  C27 UNL     1      32.344  97.428  -6.749  0.00  0.00    +0.139 A 
ATOM     34  C28 UNL     1      31.712  96.204  -7.050  0.00  0.00    +0.037 A 
ATOM     35  C29 UNL     1      30.513  95.854  -6.422  0.00  0.00    +0.006 A 
ATOM     36  C30 UNL     1      29.932  96.709  -5.471  0.00  0.00    +0.040 A 
ATOM     37  C32 UNL     1      30.572  97.920  -5.162  0.00  0.00    +0.006 A 
ATOM     38  C33 UNL     1      31.765  98.274  -5.796  0.00  0.00    +0.037 A 
BRANCH  36  39
ATOM     39  C31 UNL     1      28.666  96.336  -4.803  0.00  0.00    +0.208 A 
ATOM     40  N3  UNL     1      28.571  95.749  -3.592  0.00  0.00    -0.106 NA
ATOM     41  N4  UNL     1      27.279  95.579  -3.375  0.00  0.00    -0.021 NA
ATOM     42  N5  UNL     1      26.592  96.044  -4.403  0.00  0.00    -0.021 NA
ATOM     43  N6  UNL     1      27.427  96.522  -5.310  0.00  0.00    -0.106 NA
ENDBRANCH  36  39
ENDBRANCH  32  33
ENDBRANCH  31  32
ENDBRANCH  30  31
ENDBRANCH  29  30
ENDBRANCH  28  29
ENDBRANCH  27  28
ENDBRANCH   6  27
TORSDOF 11
ENDMDL
