MODEL 1
REMARK VINA RESULT:      -5.8      0.000      0.000
REMARK  Name = ./data/4u7t_site_bc02/pdb/l1c1.pdb
REMARK  11 active torsions:
REMARK  status: ('A' for Active; 'I' for Inactive)
REMARK    1  A    between atoms: O1_2  and  C2_3
REMARK    2  A    between atoms: C5_6  and  C6_7
REMARK    3  A    between atoms: N2_9  and  C7_10
REMARK    4  A    between atoms: C22_26  and  O3_27
REMARK    5  A    between atoms: O3_27  and  C23_28
REMARK    6  A    between atoms: C23_28  and  C24_29
REMARK    7  A    between atoms: C24_29  and  C25_30
REMARK    8  A    between atoms: C25_30  and  C26_31
REMARK    9  A    between atoms: C26_31  and  O4_32
REMARK   10  A    between atoms: O4_32  and  C27_33
REMARK   11  A    between atoms: C30_36  and  C31_37
REMARK                            x       y       z     vdW  Elec       q    Type
REMARK                         _______ _______ _______ _____ _____    ______ ____
ROOT
ATOM      1  C2  UNL     1      38.369  96.959  -8.375  0.00  0.00    +0.172 A 
ATOM      2  C3  UNL     1      37.782  97.582  -7.260  0.00  0.00    +0.040 A 
ATOM      3  C4  UNL     1      37.042  98.756  -7.411  0.00  0.00    +0.005 A 
ATOM      4  C5  UNL     1      36.856  99.332  -8.681  0.00  0.00    +0.018 A 
ATOM      5  C21 UNL     1      37.433  98.693  -9.797  0.00  0.00    +0.041 A 
ATOM      6  C22 UNL     1      38.201  97.522  -9.648  0.00  0.00    +0.172 A 
ENDROOT
BRANCH   4   7
ATOM      7  C6  UNL     1      36.085 100.601  -8.867  0.00  0.00    +0.079 C 
ATOM      8  N1  UNL     1      34.889 100.524  -9.366  0.00  0.00    -0.172 NA
ATOM      9  N2  UNL     1      34.056 101.623  -9.648  0.00  0.00    -0.222 N 
ATOM     10  C14 UNL     1      34.376 102.838  -9.269  0.00  0.00    +0.253 C 
ATOM     11  O2  UNL     1      33.473 103.887  -9.467  0.00  0.00    -0.271 OA
ATOM     12  C15 UNL     1      35.686 103.128  -8.554  0.00  0.00    +0.091 C 
ATOM     13  C16 UNL     1      36.275 104.491  -9.047  0.00  0.00    +0.035 C 
ATOM     14  C17 UNL     1      37.778 104.559  -8.981  0.00  0.00    -0.030 C 
ATOM     15  C18 UNL     1      38.507 103.501  -9.348  0.00  0.00    -0.030 C 
ATOM     16  C19 UNL     1      37.811 102.217  -9.687  0.00  0.00    +0.032 C 
ATOM     17  C20 UNL     1      36.718 101.953  -8.631  0.00  0.00    +0.056 C 
BRANCH   9  18
ATOM     18  C7  UNL     1      32.780 101.308 -10.329  0.00  0.00    +0.108 C 
ATOM     19  C8  UNL     1      32.947 100.085 -11.260  0.00  0.00    +0.024 C 
ATOM     20  C9  UNL     1      31.856  99.978 -12.333  0.00  0.00    +0.002 C 
ATOM     21  C10 UNL     1      30.435  99.873 -11.759  0.00  0.00    +0.000 C 
ATOM     22  C11 UNL     1      29.900 101.230 -11.270  0.00  0.00    +0.000 C 
ATOM     23  C12 UNL     1      30.251 101.576  -9.810  0.00  0.00    +0.002 C 
ATOM     24  C13 UNL     1      31.632 101.114  -9.307  0.00  0.00    +0.024 C 
ENDBRANCH   9  18
ENDBRANCH   4   7
BRANCH   1  26
ATOM     25  C1  UNL     1      39.189  94.976  -7.087  0.00  0.00    +0.253 C 
ATOM     26  O1  UNL     1      39.125  95.781  -8.259  0.00  0.00    -0.468 OA
ENDBRANCH   1  26
BRANCH   6  27
ATOM     27  O3  UNL     1      38.820  96.892 -10.739  0.00  0.00    -0.472 OA
BRANCH  27  28
ATOM     28  C23 UNL     1      38.134  96.139 -11.738  0.00  0.00    +0.206 C 
BRANCH  28  29
ATOM     29  C24 UNL     1      38.293  94.642 -11.469  0.00  0.00    +0.051 C 
BRANCH  29  30
ATOM     30  C25 UNL     1      37.212  93.828 -12.198  0.00  0.00    +0.051 C 
BRANCH  30  31
ATOM     31  C26 UNL     1      36.087  93.411 -11.252  0.00  0.00    +0.206 C 
BRANCH  31  32
ATOM     32  O4  UNL     1      36.379  93.827  -9.920  0.00  0.00    -0.475 OA
BRANCH  32  33
ATOM     33  C27 UNL     1      35.621  94.768  -9.205  0.00  0.00    +0.139 A 
ATOM     34  C28 UNL     1      34.964  95.842  -9.835  0.00  0.00    +0.037 A 
ATOM     35  C29 UNL     1      34.216  96.751  -9.083  0.00  0.00    +0.006 A 
ATOM     36  C30 UNL     1      34.100  96.605  -7.687  0.00  0.00    +0.040 A 
ATOM     37  C32 UNL     1      34.760  95.530  -7.065  0.00  0.00    +0.006 A 
ATOM     38  C33 UNL     1      35.515  94.625  -7.818  0.00  0.00    +0.037 A 
BRANCH  36  39
ATOM     39  C31 UNL     1      33.290  97.566  -6.892  0.00  0.00    +0.208 A 
ATOM     40  N3  UNL     1      31.939  97.617  -6.867  0.00  0.00    -0.106 NA
ATOM     41  N4  UNL     1      31.631  98.595  -6.032  0.00  0.00    -0.021 NA
ATOM     42  N5  UNL     1      32.737  99.135  -5.555  0.00  0.00    -0.021 NA
ATOM     43  N6  UNL     1      33.788  98.518  -6.069  0.00  0.00    -0.106 NA
ENDBRANCH  36  39
ENDBRANCH  32  33
ENDBRANCH  31  32
ENDBRANCH  30  31
ENDBRANCH  29  30
ENDBRANCH  28  29
ENDBRANCH  27  28
ENDBRANCH   6  27
TORSDOF 11
ENDMDL
MODEL 2
REMARK VINA RESULT:      -5.5      3.082      6.974
REMARK  Name = ./data/4u7t_site_bc02/pdb/l1c1.pdb
REMARK  11 active torsions:
REMARK  status: ('A' for Active; 'I' for Inactive)
REMARK    1  A    between atoms: O1_2  and  C2_3
REMARK    2  A    between atoms: C5_6  and  C6_7
REMARK    3  A    between atoms: N2_9  and  C7_10
REMARK    4  A    between atoms: C22_26  and  O3_27
REMARK    5  A    between atoms: O3_27  and  C23_28
REMARK    6  A    between atoms: C23_28  and  C24_29
REMARK    7  A    between atoms: C24_29  and  C25_30
REMARK    8  A    between atoms: C25_30  and  C26_31
REMARK    9  A    between atoms: C26_31  and  O4_32
REMARK   10  A    between atoms: O4_32  and  C27_33
REMARK   11  A    between atoms: C30_36  and  C31_37
REMARK                            x       y       z     vdW  Elec       q    Type
REMARK                         _______ _______ _______ _____ _____    ______ ____
ROOT
ATOM      1  C2  UNL     1      32.735 103.865 -11.207  0.00  0.00    +0.172 A 
ATOM      2  C3  UNL     1      33.497 103.368 -12.278  0.00  0.00    +0.040 A 
ATOM      3  C4  UNL     1      34.556 102.488 -12.049  0.00  0.00    +0.005 A 
ATOM      4  C5  UNL     1      34.874 102.068 -10.744  0.00  0.00    +0.018 A 
ATOM      5  C21 UNL     1      34.095 102.557  -9.676  0.00  0.00    +0.041 A 
ATOM      6  C22 UNL     1      33.041 103.464  -9.898  0.00  0.00    +0.172 A 
ENDROOT
BRANCH   4   7
ATOM      7  C6  UNL     1      36.017 101.143 -10.469  0.00  0.00    +0.079 C 
ATOM      8  N1  UNL     1      35.758  99.995  -9.922  0.00  0.00    -0.172 NA
ATOM      9  N2  UNL     1      36.720  99.035  -9.556  0.00  0.00    -0.222 N 
ATOM     10  C14 UNL     1      37.981  99.168  -9.896  0.00  0.00    +0.253 C 
ATOM     11  O2  UNL     1      38.888  98.142  -9.613  0.00  0.00    -0.271 OA
ATOM     12  C15 UNL     1      38.475 100.389 -10.655  0.00  0.00    +0.091 C 
ATOM     13  C16 UNL     1      39.887 100.812 -10.130  0.00  0.00    +0.035 C 
ATOM     14  C17 UNL     1      40.163 102.286 -10.259  0.00  0.00    -0.030 C 
ATOM     15  C18 UNL     1      39.203 103.169  -9.971  0.00  0.00    -0.030 C 
ATOM     16  C19 UNL     1      37.824 102.672  -9.657  0.00  0.00    +0.032 C 
ATOM     17  C20 UNL     1      37.451 101.574 -10.675  0.00  0.00    +0.056 C 
BRANCH   9  18
ATOM     18  C7  UNL     1      36.207  97.849  -8.834  0.00  0.00    +0.108 C 
ATOM     19  C8  UNL     1      35.997  98.171  -7.336  0.00  0.00    +0.024 C 
ATOM     20  C9  UNL     1      35.931  96.925  -6.445  0.00  0.00    +0.002 C 
ATOM     21  C10 UNL     1      34.800  95.956  -6.824  0.00  0.00    +0.000 C 
ATOM     22  C11 UNL     1      35.142  95.117  -8.067  0.00  0.00    +0.000 C 
ATOM     23  C12 UNL     1      34.766  95.770  -9.412  0.00  0.00    +0.002 C 
ATOM     24  C13 UNL     1      34.921  97.300  -9.500  0.00  0.00    +0.024 C 
ENDBRANCH   9  18
ENDBRANCH   4   7
BRANCH   1  26
ATOM     25  C1  UNL     1      30.478 104.446 -12.118  0.00  0.00    +0.253 C 
ATOM     26  O1  UNL     1      31.667 104.756 -11.400  0.00  0.00    -0.468 OA
ENDBRANCH   1  26
BRANCH   6  27
ATOM     27  O3  UNL     1      32.279 103.996  -8.846  0.00  0.00    -0.472 OA
BRANCH  27  28
ATOM     28  C23 UNL     1      31.525 103.220  -7.918  0.00  0.00    +0.206 C 
BRANCH  28  29
ATOM     29  C24 UNL     1      31.466 101.762  -8.376  0.00  0.00    +0.051 C 
BRANCH  29  30
ATOM     30  C25 UNL     1      31.937 100.810  -7.267  0.00  0.00    +0.051 C 
BRANCH  30  31
ATOM     31  C26 UNL     1      32.709  99.620  -7.835  0.00  0.00    +0.206 C 
BRANCH  31  32
ATOM     32  O4  UNL     1      31.808  98.590  -8.234  0.00  0.00    -0.475 OA
BRANCH  32  33
ATOM     33  C27 UNL     1      30.797  98.066  -7.412  0.00  0.00    +0.139 A 
ATOM     34  C28 UNL     1      29.492  98.594  -7.393  0.00  0.00    +0.037 A 
ATOM     35  C29 UNL     1      28.517  98.037  -6.563  0.00  0.00    +0.006 A 
ATOM     36  C30 UNL     1      28.819  96.937  -5.738  0.00  0.00    +0.040 A 
ATOM     37  C32 UNL     1      30.126  96.416  -5.760  0.00  0.00    +0.006 A 
ATOM     38  C33 UNL     1      31.103  96.980  -6.587  0.00  0.00    +0.037 A 
BRANCH  36  39
ATOM     39  C31 UNL     1      27.774  96.337  -4.865  0.00  0.00    +0.208 A 
ATOM     40  N3  UNL     1      26.442  96.396  -5.088  0.00  0.00    -0.106 NA
ATOM     41  N4  UNL     1      25.881  95.732  -4.093  0.00  0.00    -0.021 NA
ATOM     42  N5  UNL     1      26.817  95.277  -3.280  0.00  0.00    -0.021 NA
ATOM     43  N6  UNL     1      28.008  95.635  -3.733  0.00  0.00    -0.106 NA
ENDBRANCH  36  39
ENDBRANCH  32  33
ENDBRANCH  31  32
ENDBRANCH  30  31
ENDBRANCH  29  30
ENDBRANCH  28  29
ENDBRANCH  27  28
ENDBRANCH   6  27
TORSDOF 11
ENDMDL
MODEL 3
REMARK VINA RESULT:      -5.2      3.593      6.048
REMARK  Name = ./data/4u7t_site_bc02/pdb/l1c1.pdb
REMARK  11 active torsions:
REMARK  status: ('A' for Active; 'I' for Inactive)
REMARK    1  A    between atoms: O1_2  and  C2_3
REMARK    2  A    between atoms: C5_6  and  C6_7
REMARK    3  A    between atoms: N2_9  and  C7_10
REMARK    4  A    between atoms: C22_26  and  O3_27
REMARK    5  A    between atoms: O3_27  and  C23_28
REMARK    6  A    between atoms: C23_28  and  C24_29
REMARK    7  A    between atoms: C24_29  and  C25_30
REMARK    8  A    between atoms: C25_30  and  C26_31
REMARK    9  A    between atoms: C26_31  and  O4_32
REMARK   10  A    between atoms: O4_32  and  C27_33
REMARK   11  A    between atoms: C30_36  and  C31_37
REMARK                            x       y       z     vdW  Elec       q    Type
REMARK                         _______ _______ _______ _____ _____    ______ ____
ROOT
ATOM      1  C2  UNL     1      37.072  98.311  -7.604  0.00  0.00    +0.172 A 
ATOM      2  C3  UNL     1      36.217  97.257  -7.242  0.00  0.00    +0.040 A 
ATOM      3  C4  UNL     1      34.831  97.408  -7.317  0.00  0.00    +0.005 A 
ATOM      4  C5  UNL     1      34.262  98.613  -7.770  0.00  0.00    +0.018 A 
ATOM      5  C21 UNL     1      35.126  99.661  -8.147  0.00  0.00    +0.041 A 
ATOM      6  C22 UNL     1      36.525  99.522  -8.051  0.00  0.00    +0.172 A 
ENDROOT
BRANCH   4   7
ATOM      7  C6  UNL     1      32.781  98.809  -7.840  0.00  0.00    +0.079 C 
ATOM      8  N1  UNL     1      32.026  98.056  -7.101  0.00  0.00    -0.172 NA
ATOM      9  N2  UNL     1      30.619  98.081  -7.087  0.00  0.00    -0.222 N 
ATOM     10  C14 UNL     1      29.946  99.008  -7.728  0.00  0.00    +0.253 C 
ATOM     11  O2  UNL     1      28.555  99.068  -7.600  0.00  0.00    -0.271 OA
ATOM     12  C15 UNL     1      30.650 100.069  -8.558  0.00  0.00    +0.091 C 
ATOM     13  C16 UNL     1      29.829 100.365  -9.856  0.00  0.00    +0.035 C 
ATOM     14  C17 UNL     1      30.675 100.812 -11.018  0.00  0.00    -0.030 C 
ATOM     15  C18 UNL     1      31.846 100.213 -11.255  0.00  0.00    -0.030 C 
ATOM     16  C19 UNL     1      32.360  99.201 -10.276  0.00  0.00    +0.032 C 
ATOM     17  C20 UNL     1      32.154  99.747  -8.847  0.00  0.00    +0.056 C 
BRANCH   9  18
ATOM     18  C7  UNL     1      29.963  97.046  -6.256  0.00  0.00    +0.108 C 
ATOM     19  C8  UNL     1      30.738  95.711  -6.335  0.00  0.00    +0.024 C 
ATOM     20  C9  UNL     1      29.905  94.493  -5.913  0.00  0.00    +0.002 C 
ATOM     21  C10 UNL     1      29.373  94.580  -4.474  0.00  0.00    +0.000 C 
ATOM     22  C11 UNL     1      28.161  95.520  -4.356  0.00  0.00    +0.000 C 
ATOM     23  C12 UNL     1      28.512  97.000  -4.105  0.00  0.00    +0.002 C 
ATOM     24  C13 UNL     1      29.781  97.531  -4.796  0.00  0.00    +0.024 C 
ENDBRANCH   9  18
ENDBRANCH   4   7
BRANCH   1  26
ATOM     25  C1  UNL     1      39.190  96.983  -7.733  0.00  0.00    +0.253 C 
ATOM     26  O1  UNL     1      38.471  98.196  -7.535  0.00  0.00    -0.468 OA
ENDBRANCH   1  26
BRANCH   6  27
ATOM     27  O3  UNL     1      37.403 100.566  -8.381  0.00  0.00    -0.472 OA
BRANCH  27  28
ATOM     28  C23 UNL     1      37.185 101.508  -9.429  0.00  0.00    +0.206 C 
BRANCH  28  29
ATOM     29  C24 UNL     1      38.036 101.146 -10.647  0.00  0.00    +0.051 C 
BRANCH  29  30
ATOM     30  C25 UNL     1      37.184 100.495 -11.748  0.00  0.00    +0.051 C 
BRANCH  30  31
ATOM     31  C26 UNL     1      37.723  99.120 -12.140  0.00  0.00    +0.206 C 
BRANCH  31  32
ATOM     32  O4  UNL     1      37.638  98.222 -11.036  0.00  0.00    -0.475 OA
BRANCH  32  33
ATOM     33  C27 UNL     1      37.091  96.931 -11.111  0.00  0.00    +0.139 A 
ATOM     34  C28 UNL     1      37.872  95.798 -11.409  0.00  0.00    +0.037 A 
ATOM     35  C29 UNL     1      37.284  94.531 -11.468  0.00  0.00    +0.006 A 
ATOM     36  C30 UNL     1      35.908  94.366 -11.226  0.00  0.00    +0.040 A 
ATOM     37  C32 UNL     1      35.134  95.503 -10.931  0.00  0.00    +0.006 A 
ATOM     38  C33 UNL     1      35.722  96.771 -10.880  0.00  0.00    +0.037 A 
BRANCH  36  39
ATOM     39  C31 UNL     1      35.288  93.015 -11.276  0.00  0.00    +0.208 A 
ATOM     40  N3  UNL     1      35.730  91.981 -12.027  0.00  0.00    -0.106 NA
ATOM     41  N4  UNL     1      34.912  90.974 -11.769  0.00  0.00    -0.021 NA
ATOM     42  N5  UNL     1      33.998  91.358 -10.896  0.00  0.00    -0.021 NA
ATOM     43  N6  UNL     1      34.204  92.623 -10.569  0.00  0.00    -0.106 NA
ENDBRANCH  36  39
ENDBRANCH  32  33
ENDBRANCH  31  32
ENDBRANCH  30  31
ENDBRANCH  29  30
ENDBRANCH  28  29
ENDBRANCH  27  28
ENDBRANCH   6  27
TORSDOF 11
ENDMDL
MODEL 4
REMARK VINA RESULT:      -5.1      3.089      7.360
REMARK  Name = ./data/4u7t_site_bc02/pdb/l1c1.pdb
REMARK  11 active torsions:
REMARK  status: ('A' for Active; 'I' for Inactive)
REMARK    1  A    between atoms: O1_2  and  C2_3
REMARK    2  A    between atoms: C5_6  and  C6_7
REMARK    3  A    between atoms: N2_9  and  C7_10
REMARK    4  A    between atoms: C22_26  and  O3_27
REMARK    5  A    between atoms: O3_27  and  C23_28
REMARK    6  A    between atoms: C23_28  and  C24_29
REMARK    7  A    between atoms: C24_29  and  C25_30
REMARK    8  A    between atoms: C25_30  and  C26_31
REMARK    9  A    between atoms: C26_31  and  O4_32
REMARK   10  A    between atoms: O4_32  and  C27_33
REMARK   11  A    between atoms: C30_36  and  C31_37
REMARK                            x       y       z     vdW  Elec       q    Type
REMARK                         _______ _______ _______ _____ _____    ______ ____
ROOT
ATOM      1  C2  UNL     1      33.545 100.696  -7.784  0.00  0.00    +0.172 A 
ATOM      2  C3  UNL     1      34.400  99.844  -7.064  0.00  0.00    +0.040 A 
ATOM      3  C4  UNL     1      35.529  99.293  -7.671  0.00  0.00    +0.005 A 
ATOM      4  C5  UNL     1      35.844  99.589  -9.011  0.00  0.00    +0.018 A 
ATOM      5  C21 UNL     1      34.991 100.458  -9.722  0.00  0.00    +0.041 A 
ATOM      6  C22 UNL     1      33.836 100.997  -9.121  0.00  0.00    +0.172 A 
ENDROOT
BRANCH   4   7
ATOM      7  C6  UNL     1      37.036  98.996  -9.692  0.00  0.00    +0.079 C 
ATOM      8  N1  UNL     1      37.468  97.843  -9.280  0.00  0.00    -0.172 NA
ATOM      9  N2  UNL     1      38.601  97.176  -9.780  0.00  0.00    -0.222 N 
ATOM     10  C14 UNL     1      39.236  97.610 -10.843  0.00  0.00    +0.253 C 
ATOM     11  O2  UNL     1      40.289  96.860 -11.377  0.00  0.00    -0.271 OA
ATOM     12  C15 UNL     1      38.812  98.884 -11.557  0.00  0.00    +0.091 C 
ATOM     13  C16 UNL     1      40.074  99.672 -12.040  0.00  0.00    +0.035 C 
ATOM     14  C17 UNL     1      39.866 101.162 -12.110  0.00  0.00    -0.030 C 
ATOM     15  C18 UNL     1      39.191 101.784 -11.138  0.00  0.00    -0.030 C 
ATOM     16  C19 UNL     1      38.533 100.966 -10.068  0.00  0.00    +0.032 C 
ATOM     17  C20 UNL     1      37.820  99.768 -10.729  0.00  0.00    +0.056 C 
BRANCH   9  18
ATOM     18  C7  UNL     1      38.979  95.929  -9.076  0.00  0.00    +0.108 C 
ATOM     19  C8  UNL     1      38.763  96.077  -7.552  0.00  0.00    +0.024 C 
ATOM     20  C9  UNL     1      39.548  95.055  -6.720  0.00  0.00    +0.002 C 
ATOM     21  C10 UNL     1      39.199  93.595  -7.050  0.00  0.00    +0.000 C 
ATOM     22  C11 UNL     1      39.856  93.119  -8.357  0.00  0.00    +0.000 C 
ATOM     23  C12 UNL     1      39.035  93.395  -9.632  0.00  0.00    +0.002 C 
ATOM     24  C13 UNL     1      38.228  94.706  -9.658  0.00  0.00    +0.024 C 
ENDBRANCH   9  18
ENDBRANCH   4   7
BRANCH   1  26
ATOM     25  C1  UNL     1      31.737 102.425  -7.697  0.00  0.00    +0.253 C 
ATOM     26  O1  UNL     1      32.397 101.263  -7.206  0.00  0.00    -0.468 OA
ENDBRANCH   1  26
BRANCH   6  27
ATOM     27  O3  UNL     1      32.950 101.830  -9.823  0.00  0.00    -0.472 OA
BRANCH  27  28
ATOM     28  C23 UNL     1      32.570 101.646 -11.185  0.00  0.00    +0.206 C 
BRANCH  28  29
ATOM     29  C24 UNL     1      31.692 100.402 -11.322  0.00  0.00    +0.051 C 
BRANCH  29  30
ATOM     30  C25 UNL     1      30.200 100.768 -11.305  0.00  0.00    +0.051 C 
BRANCH  30  31
ATOM     31  C26 UNL     1      29.617 100.693  -9.894  0.00  0.00    +0.206 C 
BRANCH  31  32
ATOM     32  O4  UNL     1      30.411  99.837  -9.075  0.00  0.00    -0.475 OA
BRANCH  32  33
ATOM     33  C27 UNL     1      29.894  99.019  -8.059  0.00  0.00    +0.139 A 
ATOM     34  C28 UNL     1      30.707  98.163  -7.292  0.00  0.00    +0.037 A 
ATOM     35  C29 UNL     1      30.148  97.370  -6.287  0.00  0.00    +0.006 A 
ATOM     36  C30 UNL     1      28.767  97.417  -6.019  0.00  0.00    +0.040 A 
ATOM     37  C32 UNL     1      27.960  98.274  -6.790  0.00  0.00    +0.006 A 
ATOM     38  C33 UNL     1      28.520  99.061  -7.802  0.00  0.00    +0.037 A 
BRANCH  36  39
ATOM     39  C31 UNL     1      28.178  96.583  -4.938  0.00  0.00    +0.208 A 
ATOM     40  N3  UNL     1      28.878  95.803  -4.084  0.00  0.00    -0.106 NA
ATOM     41  N4  UNL     1      27.981  95.251  -3.284  0.00  0.00    -0.021 NA
ATOM     42  N5  UNL     1      26.773  95.664  -3.621  0.00  0.00    -0.021 NA
ATOM     43  N6  UNL     1      26.860  96.496  -4.646  0.00  0.00    -0.106 NA
ENDBRANCH  36  39
ENDBRANCH  32  33
ENDBRANCH  31  32
ENDBRANCH  30  31
ENDBRANCH  29  30
ENDBRANCH  28  29
ENDBRANCH  27  28
ENDBRANCH   6  27
TORSDOF 11
ENDMDL
MODEL 5
REMARK VINA RESULT:      -4.6      4.767      8.222
REMARK  Name = ./data/4u7t_site_bc02/pdb/l1c1.pdb
REMARK  11 active torsions:
REMARK  status: ('A' for Active; 'I' for Inactive)
REMARK    1  A    between atoms: O1_2  and  C2_3
REMARK    2  A    between atoms: C5_6  and  C6_7
REMARK    3  A    between atoms: N2_9  and  C7_10
REMARK    4  A    between atoms: C22_26  and  O3_27
REMARK    5  A    between atoms: O3_27  and  C23_28
REMARK    6  A    between atoms: C23_28  and  C24_29
REMARK    7  A    between atoms: C24_29  and  C25_30
REMARK    8  A    between atoms: C25_30  and  C26_31
REMARK    9  A    between atoms: C26_31  and  O4_32
REMARK   10  A    between atoms: O4_32  and  C27_33
REMARK   11  A    between atoms: C30_36  and  C31_37
REMARK                            x       y       z     vdW  Elec       q    Type
REMARK                         _______ _______ _______ _____ _____    ______ ____
ROOT
ATOM      1  C2  UNL     1      31.332 101.050 -11.171  0.00  0.00    +0.172 A 
ATOM      2  C3  UNL     1      32.563 101.101 -11.848  0.00  0.00    +0.040 A 
ATOM      3  C4  UNL     1      33.662 100.380 -11.378  0.00  0.00    +0.005 A 
ATOM      4  C5  UNL     1      33.558  99.578 -10.227  0.00  0.00    +0.018 A 
ATOM      5  C21 UNL     1      32.316  99.518  -9.562  0.00  0.00    +0.041 A 
ATOM      6  C22 UNL     1      31.210 100.262 -10.018  0.00  0.00    +0.172 A 
ENDROOT
BRANCH   4   7
ATOM      7  C6  UNL     1      34.726  98.812  -9.690  0.00  0.00    +0.079 C 
ATOM      8  N1  UNL     1      34.957  97.629 -10.171  0.00  0.00    -0.172 NA
ATOM      9  N2  UNL     1      35.981  96.765  -9.740  0.00  0.00    -0.222 N 
ATOM     10  C14 UNL     1      36.907  97.167  -8.902  0.00  0.00    +0.253 C 
ATOM     11  O2  UNL     1      37.971  96.317  -8.584  0.00  0.00    -0.271 OA
ATOM     12  C15 UNL     1      36.891  98.568  -8.312  0.00  0.00    +0.091 C 
ATOM     13  C16 UNL     1      37.344  98.525  -6.816  0.00  0.00    +0.035 C 
ATOM     14  C17 UNL     1      36.741  99.614  -5.970  0.00  0.00    -0.030 C 
ATOM     15  C18 UNL     1      35.454  99.940  -6.125  0.00  0.00    -0.030 C 
ATOM     16  C19 UNL     1      34.671  99.309  -7.238  0.00  0.00    +0.032 C 
ATOM     17  C20 UNL     1      35.534  99.321  -8.517  0.00  0.00    +0.056 C 
BRANCH   9  18
ATOM     18  C7  UNL     1      35.982  95.413 -10.345  0.00  0.00    +0.108 C 
ATOM     19  C8  UNL     1      34.555  94.818 -10.350  0.00  0.00    +0.024 C 
ATOM     20  C9  UNL     1      34.528  93.292 -10.507  0.00  0.00    +0.002 C 
ATOM     21  C10 UNL     1      35.191  92.794 -11.800  0.00  0.00    +0.000 C 
ATOM     22  C11 UNL     1      36.727  92.815 -11.715  0.00  0.00    +0.000 C 
ATOM     23  C12 UNL     1      37.380  94.148 -12.127  0.00  0.00    +0.002 C 
ATOM     24  C13 UNL     1      36.613  95.432 -11.759  0.00  0.00    +0.024 C 
ENDBRANCH   9  18
ENDBRANCH   4   7
BRANCH   1  26
ATOM     25  C1  UNL     1      30.121 103.187 -11.650  0.00  0.00    +0.253 C 
ATOM     26  O1  UNL     1      30.207 101.767 -11.612  0.00  0.00    -0.468 OA
ENDBRANCH   1  26
BRANCH   6  27
ATOM     27  O3  UNL     1      29.977 100.251  -9.349  0.00  0.00    -0.472 OA
BRANCH  27  28
ATOM     28  C23 UNL     1      29.822 100.166  -7.933  0.00  0.00    +0.206 C 
BRANCH  28  29
ATOM     29  C24 UNL     1      29.569  98.716  -7.518  0.00  0.00    +0.051 C 
BRANCH  29  30
ATOM     30  C25 UNL     1      30.844  98.067  -6.959  0.00  0.00    +0.051 C 
BRANCH  30  31
ATOM     31  C26 UNL     1      30.560  97.271  -5.685  0.00  0.00    +0.206 C 
BRANCH  31  32
ATOM     32  O4  UNL     1      29.346  97.716  -5.083  0.00  0.00    -0.475 OA
BRANCH  32  33
ATOM     33  C27 UNL     1      28.381  96.859  -4.532  0.00  0.00    +0.139 A 
ATOM     34  C28 UNL     1      27.009  97.178  -4.519  0.00  0.00    +0.037 A 
ATOM     35  C29 UNL     1      26.084  96.291  -3.964  0.00  0.00    +0.006 A 
ATOM     36  C30 UNL     1      26.503  95.064  -3.416  0.00  0.00    +0.040 A 
ATOM     37  C32 UNL     1      27.875  94.753  -3.431  0.00  0.00    +0.006 A 
ATOM     38  C33 UNL     1      28.802  95.646  -3.980  0.00  0.00    +0.037 A 
BRANCH  36  39
ATOM     39  C31 UNL     1      25.513  94.115  -2.839  0.00  0.00    +0.208 A 
ATOM     40  N3  UNL     1      24.423  93.639  -3.481  0.00  0.00    -0.106 NA
ATOM     41  N4  UNL     1      23.829  92.825  -2.625  0.00  0.00    -0.021 NA
ATOM     42  N5  UNL     1      24.514  92.792  -1.496  0.00  0.00    -0.021 NA
ATOM     43  N6  UNL     1      25.569  93.584  -1.597  0.00  0.00    -0.106 NA
ENDBRANCH  36  39
ENDBRANCH  32  33
ENDBRANCH  31  32
ENDBRANCH  30  31
ENDBRANCH  29  30
ENDBRANCH  28  29
ENDBRANCH  27  28
ENDBRANCH   6  27
TORSDOF 11
ENDMDL
MODEL 6
REMARK VINA RESULT:      -3.8      3.393      7.542
REMARK  Name = ./data/4u7t_site_bc02/pdb/l1c1.pdb
REMARK  11 active torsions:
REMARK  status: ('A' for Active; 'I' for Inactive)
REMARK    1  A    between atoms: O1_2  and  C2_3
REMARK    2  A    between atoms: C5_6  and  C6_7
REMARK    3  A    between atoms: N2_9  and  C7_10
REMARK    4  A    between atoms: C22_26  and  O3_27
REMARK    5  A    between atoms: O3_27  and  C23_28
REMARK    6  A    between atoms: C23_28  and  C24_29
REMARK    7  A    between atoms: C24_29  and  C25_30
REMARK    8  A    between atoms: C25_30  and  C26_31
REMARK    9  A    between atoms: C26_31  and  O4_32
REMARK   10  A    between atoms: O4_32  and  C27_33
REMARK   11  A    between atoms: C30_36  and  C31_37
REMARK                            x       y       z     vdW  Elec       q    Type
REMARK                         _______ _______ _______ _____ _____    ______ ____
ROOT
ATOM      1  C2  UNL     1      34.827  98.888  -6.455  0.00  0.00    +0.172 A 
ATOM      2  C3  UNL     1      36.088  98.390  -6.084  0.00  0.00    +0.040 A 
ATOM      3  C4  UNL     1      37.010  97.996  -7.054  0.00  0.00    +0.005 A 
ATOM      4  C5  UNL     1      36.704  98.102  -8.424  0.00  0.00    +0.018 A 
ATOM      5  C21 UNL     1      35.444  98.619  -8.790  0.00  0.00    +0.041 A 
ATOM      6  C22 UNL     1      34.501  98.995  -7.814  0.00  0.00    +0.172 A 
ENDROOT
BRANCH   4   7
ATOM      7  C6  UNL     1      37.666  97.668  -9.484  0.00  0.00    +0.079 C 
ATOM      8  N1  UNL     1      38.079  96.438  -9.471  0.00  0.00    -0.172 NA
ATOM      9  N2  UNL     1      39.017  95.888 -10.364  0.00  0.00    -0.222 N 
ATOM     10  C14 UNL     1      39.439  96.559 -11.411  0.00  0.00    +0.253 C 
ATOM     11  O2  UNL     1      40.284  95.939 -12.337  0.00  0.00    -0.271 OA
ATOM     12  C15 UNL     1      38.977  97.981 -11.681  0.00  0.00    +0.091 C 
ATOM     13  C16 UNL     1      40.164  98.832 -12.241  0.00  0.00    +0.035 C 
ATOM     14  C17 UNL     1      40.071 100.296 -11.903  0.00  0.00    -0.030 C 
ATOM     15  C18 UNL     1      39.678 100.672 -10.682  0.00  0.00    -0.030 C 
ATOM     16  C19 UNL     1      39.203  99.629  -9.715  0.00  0.00    +0.032 C 
ATOM     17  C20 UNL     1      38.267  98.655 -10.460  0.00  0.00    +0.056 C 
BRANCH   9  18
ATOM     18  C7  UNL     1      39.435  94.495 -10.085  0.00  0.00    +0.108 C 
ATOM     19  C8  UNL     1      39.442  94.222  -8.564  0.00  0.00    +0.024 C 
ATOM     20  C9  UNL     1      40.290  93.008  -8.162  0.00  0.00    +0.002 C 
ATOM     21  C10 UNL     1      39.834  91.695  -8.818  0.00  0.00    +0.000 C 
ATOM     22  C11 UNL     1      40.278  91.591 -10.287  0.00  0.00    +0.000 C 
ATOM     23  C12 UNL     1      39.298  92.208 -11.304  0.00  0.00    +0.002 C 
ATOM     24  C13 UNL     1      38.555  93.480 -10.857  0.00  0.00    +0.024 C 
ENDBRANCH   9  18
ENDBRANCH   4   7
BRANCH   1  26
ATOM     25  C1  UNL     1      32.573  98.721  -5.381  0.00  0.00    +0.253 C 
ATOM     26  O1  UNL     1      33.873  99.288  -5.505  0.00  0.00    -0.468 OA
ENDBRANCH   1  26
BRANCH   6  27
ATOM     27  O3  UNL     1      33.225  99.472  -8.154  0.00  0.00    -0.472 OA
BRANCH  27  28
ATOM     28  C23 UNL     1      32.951 100.788  -8.630  0.00  0.00    +0.206 C 
BRANCH  28  29
ATOM     29  C24 UNL     1      32.933 100.801 -10.160  0.00  0.00    +0.051 C 
BRANCH  29  30
ATOM     30  C25 UNL     1      31.547 101.187 -10.697  0.00  0.00    +0.051 C 
BRANCH  30  31
ATOM     31  C26 UNL     1      30.521 100.081 -10.459  0.00  0.00    +0.206 C 
BRANCH  31  32
ATOM     32  O4  UNL     1      29.643 100.439  -9.394  0.00  0.00    -0.475 OA
BRANCH  32  33
ATOM     33  C27 UNL     1      29.279  99.575  -8.349  0.00  0.00    +0.139 A 
ATOM     34  C28 UNL     1      27.968  99.515  -7.842  0.00  0.00    +0.037 A 
ATOM     35  C29 UNL     1      27.651  98.635  -6.804  0.00  0.00    +0.006 A 
ATOM     36  C30 UNL     1      28.632  97.790  -6.254  0.00  0.00    +0.040 A 
ATOM     37  C32 UNL     1      29.942  97.856  -6.765  0.00  0.00    +0.006 A 
ATOM     38  C33 UNL     1      30.259  98.744  -7.799  0.00  0.00    +0.037 A 
BRANCH  36  39
ATOM     39  C31 UNL     1      28.289  96.844  -5.159  0.00  0.00    +0.208 A 
ATOM     40  N3  UNL     1      27.046  96.636  -4.669  0.00  0.00    -0.106 NA
ATOM     41  N4  UNL     1      27.180  95.717  -3.727  0.00  0.00    -0.021 NA
ATOM     42  N5  UNL     1      28.449  95.365  -3.630  0.00  0.00    -0.021 NA
ATOM     43  N6  UNL     1      29.166  96.047  -4.508  0.00  0.00    -0.106 NA
ENDBRANCH  36  39
ENDBRANCH  32  33
ENDBRANCH  31  32
ENDBRANCH  30  31
ENDBRANCH  29  30
ENDBRANCH  28  29
ENDBRANCH  27  28
ENDBRANCH   6  27
TORSDOF 11
ENDMDL
