MODEL 1
REMARK VINA RESULT:      -4.9      0.000      0.000
REMARK  Name = ./data/4u7t_site_bc02/pdb/l0c1.pdb
REMARK  11 active torsions:
REMARK  status: ('A' for Active; 'I' for Inactive)
REMARK    1  A    between atoms: O1_2  and  C2_3
REMARK    2  A    between atoms: C5_6  and  C6_7
REMARK    3  A    between atoms: N2_9  and  C7_10
REMARK    4  A    between atoms: C19_23  and  O3_24
REMARK    5  A    between atoms: O3_24  and  C20_25
REMARK    6  A    between atoms: C20_25  and  C21_26
REMARK    7  A    between atoms: C21_26  and  C22_27
REMARK    8  A    between atoms: C22_27  and  C23_28
REMARK    9  A    between atoms: C23_28  and  O4_29
REMARK   10  A    between atoms: O4_29  and  C24_30
REMARK   11  A    between atoms: C27_33  and  C28_34
REMARK                            x       y       z     vdW  Elec       q    Type
REMARK                         _______ _______ _______ _____ _____    ______ ____
ROOT
ATOM      1  C2  UNL     1      24.405  80.793  16.584  0.00  0.00    +0.172 A 
ATOM      2  C3  UNL     1      23.530  79.937  15.896  0.00  0.00    +0.040 A 
ATOM      3  C4  UNL     1      22.183  79.858  16.261  0.00  0.00    +0.005 A 
ATOM      4  C5  UNL     1      21.680  80.627  17.325  0.00  0.00    +0.019 A 
ATOM      5  C18 UNL     1      22.549  81.516  17.977  0.00  0.00    +0.041 A 
ATOM      6  C19 UNL     1      23.911  81.594  17.624  0.00  0.00    +0.172 A 
ENDROOT
BRANCH   4   7
ATOM      7  C6  UNL     1      20.271  80.440  17.771  0.00  0.00    +0.086 C 
ATOM      8  N1  UNL     1      19.358  81.318  17.497  0.00  0.00    -0.171 NA
ATOM      9  N2  UNL     1      18.100  80.813  17.824  0.00  0.00    -0.222 N 
ATOM     10  C14 UNL     1      18.214  79.615  18.301  0.00  0.00    +0.257 C 
ATOM     11  O2  UNL     1      17.121  78.847  18.698  0.00  0.00    -0.270 OA
ATOM     12  C15 UNL     1      19.650  79.184  18.372  0.00  0.00    +0.110 C 
ATOM     13  C16 UNL     1      20.039  78.960  19.845  0.00  0.00    +0.015 C 
ATOM     14  C17 UNL     1      19.882  77.938  17.496  0.00  0.00    +0.015 C 
BRANCH   9  15
ATOM     15  C7  UNL     1      16.835  81.542  17.649  0.00  0.00    +0.108 C 
ATOM     16  C8  UNL     1      15.891  81.340  18.868  0.00  0.00    +0.024 C 
ATOM     17  C9  UNL     1      14.981  82.555  19.114  0.00  0.00    +0.002 C 
ATOM     18  C10 UNL     1      13.806  82.664  18.137  0.00  0.00    +0.000 C 
ATOM     19  C11 UNL     1      14.244  82.772  16.667  0.00  0.00    +0.000 C 
ATOM     20  C12 UNL     1      14.702  81.417  16.110  0.00  0.00    +0.002 C 
ATOM     21  C13 UNL     1      16.207  81.149  16.284  0.00  0.00    +0.024 C 
ENDBRANCH   9  15
ENDBRANCH   4   7
BRANCH   1  23
ATOM     22  C1  UNL     1      26.758  79.945  16.698  0.00  0.00    +0.253 C 
ATOM     23  O1  UNL     1      25.772  80.876  16.266  0.00  0.00    -0.468 OA
ENDBRANCH   1  23
BRANCH   6  24
ATOM     24  O3  UNL     1      24.814  82.452  18.286  0.00  0.00    -0.472 OA
BRANCH  24  25
ATOM     25  C20 UNL     1      24.878  83.870  18.125  0.00  0.00    +0.206 C 
BRANCH  25  26
ATOM     26  C21 UNL     1      23.743  84.367  17.218  0.00  0.00    +0.051 C 
BRANCH  26  27
ATOM     27  C22 UNL     1      22.956  85.493  17.900  0.00  0.00    +0.051 C 
BRANCH  27  28
ATOM     28  C23 UNL     1      22.175  86.326  16.880  0.00  0.00    +0.206 C 
BRANCH  28  29
ATOM     29  O4  UNL     1      21.562  85.477  15.909  0.00  0.00    -0.475 OA
BRANCH  29  30
ATOM     30  C24 UNL     1      20.753  85.905  14.843  0.00  0.00    +0.139 A 
ATOM     31  C25 UNL     1      21.274  86.411  13.637  0.00  0.00    +0.037 A 
ATOM     32  C26 UNL     1      20.415  86.796  12.602  0.00  0.00    +0.006 A 
ATOM     33  C27 UNL     1      19.018  86.692  12.749  0.00  0.00    +0.040 A 
ATOM     34  C29 UNL     1      18.507  86.200  13.964  0.00  0.00    +0.006 A 
ATOM     35  C30 UNL     1      19.366  85.809  14.995  0.00  0.00    +0.037 A 
BRANCH  33  36
ATOM     36  C28 UNL     1      18.101  87.084  11.640  0.00  0.00    +0.208 A 
ATOM     37  N3  UNL     1      16.821  87.486  11.791  0.00  0.00    -0.106 NA
ATOM     38  N4  UNL     1      16.372  87.729  10.571  0.00  0.00    -0.021 NA
ATOM     39  N5  UNL     1      17.330  87.493   9.690  0.00  0.00    -0.021 NA
ATOM     40  N6  UNL     1      18.418  87.088  10.325  0.00  0.00    -0.106 NA
ENDBRANCH  33  36
ENDBRANCH  29  30
ENDBRANCH  28  29
ENDBRANCH  27  28
ENDBRANCH  26  27
ENDBRANCH  25  26
ENDBRANCH  24  25
ENDBRANCH   6  24
TORSDOF 11
ENDMDL
MODEL 2
REMARK VINA RESULT:      -3.2      4.114      5.442
REMARK  Name = ./data/4u7t_site_bc02/pdb/l0c1.pdb
REMARK  11 active torsions:
REMARK  status: ('A' for Active; 'I' for Inactive)
REMARK    1  A    between atoms: O1_2  and  C2_3
REMARK    2  A    between atoms: C5_6  and  C6_7
REMARK    3  A    between atoms: N2_9  and  C7_10
REMARK    4  A    between atoms: C19_23  and  O3_24
REMARK    5  A    between atoms: O3_24  and  C20_25
REMARK    6  A    between atoms: C20_25  and  C21_26
REMARK    7  A    between atoms: C21_26  and  C22_27
REMARK    8  A    between atoms: C22_27  and  C23_28
REMARK    9  A    between atoms: C23_28  and  O4_29
REMARK   10  A    between atoms: O4_29  and  C24_30
REMARK   11  A    between atoms: C27_33  and  C28_34
REMARK                            x       y       z     vdW  Elec       q    Type
REMARK                         _______ _______ _______ _____ _____    ______ ____
ROOT
ATOM      1  C2  UNL     1      23.894  80.495  16.160  0.00  0.00    +0.172 A 
ATOM      2  C3  UNL     1      23.302  79.221  16.167  0.00  0.00    +0.040 A 
ATOM      3  C4  UNL     1      22.024  79.037  16.699  0.00  0.00    +0.005 A 
ATOM      4  C5  UNL     1      21.308  80.117  17.243  0.00  0.00    +0.019 A 
ATOM      5  C18 UNL     1      21.884  81.396  17.190  0.00  0.00    +0.041 A 
ATOM      6  C19 UNL     1      23.178  81.591  16.666  0.00  0.00    +0.172 A 
ENDROOT
BRANCH   4   7
ATOM      7  C6  UNL     1      19.997  79.876  17.909  0.00  0.00    +0.086 C 
ATOM      8  N1  UNL     1      19.057  80.767  17.883  0.00  0.00    -0.171 NA
ATOM      9  N2  UNL     1      17.872  80.221  18.376  0.00  0.00    -0.222 N 
ATOM     10  C14 UNL     1      18.059  78.985  18.711  0.00  0.00    +0.257 C 
ATOM     11  O2  UNL     1      17.047  78.173  19.219  0.00  0.00    -0.270 OA
ATOM     12  C15 UNL     1      19.482  78.563  18.489  0.00  0.00    +0.110 C 
ATOM     13  C16 UNL     1      20.122  78.206  19.843  0.00  0.00    +0.015 C 
ATOM     14  C17 UNL     1      19.548  77.407  17.473  0.00  0.00    +0.015 C 
BRANCH   9  15
ATOM     15  C7  UNL     1      16.600  80.951  18.495  0.00  0.00    +0.108 C 
ATOM     16  C8  UNL     1      16.187  81.592  17.140  0.00  0.00    +0.024 C 
ATOM     17  C9  UNL     1      14.660  81.693  16.981  0.00  0.00    +0.002 C 
ATOM     18  C10 UNL     1      14.020  82.826  17.789  0.00  0.00    +0.000 C 
ATOM     19  C11 UNL     1      14.266  82.709  19.302  0.00  0.00    +0.000 C 
ATOM     20  C12 UNL     1      15.696  83.123  19.679  0.00  0.00    +0.002 C 
ATOM     21  C13 UNL     1      16.703  81.959  19.673  0.00  0.00    +0.024 C 
ENDBRANCH   9  15
ENDBRANCH   4   7
BRANCH   1  23
ATOM     22  C1  UNL     1      26.294  79.845  15.879  0.00  0.00    +0.253 C 
ATOM     23  O1  UNL     1      25.190  80.715  15.662  0.00  0.00    -0.468 OA
ENDBRANCH   1  23
BRANCH   6  24
ATOM     24  O3  UNL     1      23.795  82.859  16.633  0.00  0.00    -0.472 OA
BRANCH  24  25
ATOM     25  C20 UNL     1      23.285  84.011  15.958  0.00  0.00    +0.206 C 
BRANCH  25  26
ATOM     26  C21 UNL     1      21.758  84.092  16.099  0.00  0.00    +0.051 C 
BRANCH  26  27
ATOM     27  C22 UNL     1      21.143  84.840  14.909  0.00  0.00    +0.051 C 
BRANCH  27  28
ATOM     28  C23 UNL     1      21.768  86.227  14.738  0.00  0.00    +0.206 C 
BRANCH  28  29
ATOM     29  O4  UNL     1      21.741  86.940  15.974  0.00  0.00    -0.475 OA
BRANCH  29  30
ATOM     30  C24 UNL     1      22.854  87.510  16.615  0.00  0.00    +0.139 A 
ATOM     31  C25 UNL     1      23.048  87.460  18.008  0.00  0.00    +0.037 A 
ATOM     32  C26 UNL     1      24.192  88.025  18.584  0.00  0.00    +0.006 A 
ATOM     33  C27 UNL     1      25.164  88.658  17.783  0.00  0.00    +0.040 A 
ATOM     34  C29 UNL     1      24.953  88.716  16.394  0.00  0.00    +0.006 A 
ATOM     35  C30 UNL     1      23.813  88.145  15.819  0.00  0.00    +0.037 A 
BRANCH  33  36
ATOM     36  C28 UNL     1      26.393  89.243  18.392  0.00  0.00    +0.208 A 
ATOM     37  N3  UNL     1      26.926  90.442  18.074  0.00  0.00    -0.106 NA
ATOM     38  N4  UNL     1      28.002  90.573  18.833  0.00  0.00    -0.021 NA
ATOM     39  N5  UNL     1      28.137  89.502  19.598  0.00  0.00    -0.021 NA
ATOM     40  N6  UNL     1      27.152  88.655  19.344  0.00  0.00    -0.106 NA
ENDBRANCH  33  36
ENDBRANCH  29  30
ENDBRANCH  28  29
ENDBRANCH  27  28
ENDBRANCH  26  27
ENDBRANCH  25  26
ENDBRANCH  24  25
ENDBRANCH   6  24
TORSDOF 11
ENDMDL
