MODEL 1
REMARK VINA RESULT:      -6.4      0.000      0.000
REMARK  Name = ./data/4u7t_site_bc02/pdb/l1c2.pdb
REMARK  11 active torsions:
REMARK  status: ('A' for Active; 'I' for Inactive)
REMARK    1  A    between atoms: O1_2  and  C2_3
REMARK    2  A    between atoms: C5_6  and  C6_7
REMARK    3  A    between atoms: N2_9  and  C7_10
REMARK    4  A    between atoms: C22_26  and  O3_27
REMARK    5  A    between atoms: O3_27  and  C23_28
REMARK    6  A    between atoms: C23_28  and  C24_29
REMARK    7  A    between atoms: C24_29  and  C25_30
REMARK    8  A    between atoms: C25_30  and  C26_31
REMARK    9  A    between atoms: C26_31  and  O4_32
REMARK   10  A    between atoms: O4_32  and  C27_33
REMARK   11  A    between atoms: C30_36  and  C31_37
REMARK                            x       y       z     vdW  Elec       q    Type
REMARK                         _______ _______ _______ _____ _____    ______ ____
ROOT
ATOM      1  C2  UNL     1      23.652  84.138  17.911  0.00  0.00    +0.172 A 
ATOM      2  C3  UNL     1      24.210  83.554  19.064  0.00  0.00    +0.040 A 
ATOM      3  C4  UNL     1      24.490  82.186  19.100  0.00  0.00    +0.005 A 
ATOM      4  C5  UNL     1      24.233  81.384  17.981  0.00  0.00    +0.018 A 
ATOM      5  C21 UNL     1      23.642  81.956  16.844  0.00  0.00    +0.041 A 
ATOM      6  C22 UNL     1      23.365  83.336  16.794  0.00  0.00    +0.172 A 
ENDROOT
BRANCH   4   7
ATOM      7  C6  UNL     1      24.552  79.944  17.977  0.00  0.00    +0.079 C 
ATOM      8  N1  UNL     1      23.691  79.131  18.517  0.00  0.00    -0.172 NA
ATOM      9  N2  UNL     1      23.768  77.723  18.401  0.00  0.00    -0.222 N 
ATOM     10  C14 UNL     1      24.868  77.153  17.952  0.00  0.00    +0.253 C 
ATOM     11  O2  UNL     1      24.958  75.768  17.802  0.00  0.00    -0.271 OA
ATOM     12  C15 UNL     1      26.072  78.002  17.620  0.00  0.00    +0.091 C 
ATOM     13  C16 UNL     1      26.940  78.188  18.880  0.00  0.00    +0.035 C 
ATOM     14  C17 UNL     1      27.949  79.296  18.749  0.00  0.00    -0.030 C 
ATOM     15  C18 UNL     1      27.829  80.285  17.852  0.00  0.00    -0.030 C 
ATOM     16  C19 UNL     1      26.817  80.251  16.739  0.00  0.00    +0.032 C 
ATOM     17  C20 UNL     1      25.602  79.353  17.053  0.00  0.00    +0.056 C 
BRANCH   9  18
ATOM     18  C7  UNL     1      22.540  76.967  18.726  0.00  0.00    +0.108 C 
ATOM     19  C8  UNL     1      22.224  75.911  17.643  0.00  0.00    +0.024 C 
ATOM     20  C9  UNL     1      21.000  75.039  17.970  0.00  0.00    +0.002 C 
ATOM     21  C10 UNL     1      19.676  75.793  17.751  0.00  0.00    +0.000 C 
ATOM     22  C11 UNL     1      19.169  76.574  18.979  0.00  0.00    +0.000 C 
ATOM     23  C12 UNL     1      20.246  77.255  19.845  0.00  0.00    +0.002 C 
ATOM     24  C13 UNL     1      21.370  77.931  19.038  0.00  0.00    +0.024 C 
ENDBRANCH   9  18
ENDBRANCH   4   7
BRANCH   1  26
ATOM     25  C1  UNL     1      24.360  86.539  17.953  0.00  0.00    +0.253 C 
ATOM     26  O1  UNL     1      23.378  85.514  17.830  0.00  0.00    -0.468 OA
ENDBRANCH   1  26
BRANCH   6  27
ATOM     27  O3  UNL     1      22.824  83.948  15.650  0.00  0.00    -0.472 OA
BRANCH  27  28
ATOM     28  C23 UNL     1      21.430  84.062  15.369  0.00  0.00    +0.206 C 
BRANCH  28  29
ATOM     29  C24 UNL     1      21.065  85.523  15.109  0.00  0.00    +0.051 C 
BRANCH  29  30
ATOM     30  C25 UNL     1      20.645  85.737  13.648  0.00  0.00    +0.051 C 
BRANCH  30  31
ATOM     31  C26 UNL     1      19.371  86.586  13.553  0.00  0.00    +0.206 C 
BRANCH  31  32
ATOM     32  O4  UNL     1      19.253  87.173  12.256  0.00  0.00    -0.475 OA
BRANCH  32  33
ATOM     33  C27 UNL     1      18.062  87.268  11.512  0.00  0.00    +0.139 A 
ATOM     34  C28 UNL     1      18.044  87.478  10.118  0.00  0.00    +0.037 A 
ATOM     35  C29 UNL     1      16.828  87.597   9.438  0.00  0.00    +0.006 A 
ATOM     36  C30 UNL     1      15.611  87.491  10.130  0.00  0.00    +0.040 A 
ATOM     37  C32 UNL     1      15.633  87.266  11.516  0.00  0.00    +0.006 A 
ATOM     38  C33 UNL     1      16.847  87.156  12.199  0.00  0.00    +0.037 A 
BRANCH  36  39
ATOM     39  C31 UNL     1      14.326  87.611   9.409  0.00  0.00    +0.208 A 
ATOM     40  N3  UNL     1      13.857  86.725   8.505  0.00  0.00    -0.106 NA
ATOM     41  N4  UNL     1      12.697  87.209   8.097  0.00  0.00    -0.021 NA
ATOM     42  N5  UNL     1      12.445  88.345   8.721  0.00  0.00    -0.021 NA
ATOM     43  N6  UNL     1      13.441  88.624   9.545  0.00  0.00    -0.106 NA
ENDBRANCH  36  39
ENDBRANCH  32  33
ENDBRANCH  31  32
ENDBRANCH  30  31
ENDBRANCH  29  30
ENDBRANCH  28  29
ENDBRANCH  27  28
ENDBRANCH   6  27
TORSDOF 11
ENDMDL
MODEL 2
REMARK VINA RESULT:      -5.3      1.564      2.123
REMARK  Name = ./data/4u7t_site_bc02/pdb/l1c2.pdb
REMARK  11 active torsions:
REMARK  status: ('A' for Active; 'I' for Inactive)
REMARK    1  A    between atoms: O1_2  and  C2_3
REMARK    2  A    between atoms: C5_6  and  C6_7
REMARK    3  A    between atoms: N2_9  and  C7_10
REMARK    4  A    between atoms: C22_26  and  O3_27
REMARK    5  A    between atoms: O3_27  and  C23_28
REMARK    6  A    between atoms: C23_28  and  C24_29
REMARK    7  A    between atoms: C24_29  and  C25_30
REMARK    8  A    between atoms: C25_30  and  C26_31
REMARK    9  A    between atoms: C26_31  and  O4_32
REMARK   10  A    between atoms: O4_32  and  C27_33
REMARK   11  A    between atoms: C30_36  and  C31_37
REMARK                            x       y       z     vdW  Elec       q    Type
REMARK                         _______ _______ _______ _____ _____    ______ ____
ROOT
ATOM      1  C2  UNL     1      24.294  85.348  17.945  0.00  0.00    +0.172 A 
ATOM      2  C3  UNL     1      25.258  84.450  18.442  0.00  0.00    +0.040 A 
ATOM      3  C4  UNL     1      25.031  83.073  18.401  0.00  0.00    +0.005 A 
ATOM      4  C5  UNL     1      23.846  82.570  17.848  0.00  0.00    +0.018 A 
ATOM      5  C21 UNL     1      22.867  83.463  17.387  0.00  0.00    +0.041 A 
ATOM      6  C22 UNL     1      23.091  84.853  17.415  0.00  0.00    +0.172 A 
ENDROOT
BRANCH   4   7
ATOM      7  C6  UNL     1      23.595  81.120  17.759  0.00  0.00    +0.079 C 
ATOM      8  N1  UNL     1      22.432  80.681  18.144  0.00  0.00    -0.172 NA
ATOM      9  N2  UNL     1      21.984  79.357  17.922  0.00  0.00    -0.222 N 
ATOM     10  C14 UNL     1      22.833  78.425  17.537  0.00  0.00    +0.253 C 
ATOM     11  O2  UNL     1      22.409  77.119  17.284  0.00  0.00    -0.271 OA
ATOM     12  C15 UNL     1      24.298  78.757  17.394  0.00  0.00    +0.091 C 
ATOM     13  C16 UNL     1      25.013  78.547  18.743  0.00  0.00    +0.035 C 
ATOM     14  C17 UNL     1      26.375  79.185  18.801  0.00  0.00    -0.030 C 
ATOM     15  C18 UNL     1      26.746  80.177  17.980  0.00  0.00    -0.030 C 
ATOM     16  C19 UNL     1      25.939  80.578  16.775  0.00  0.00    +0.032 C 
ATOM     17  C20 UNL     1      24.447  80.205  16.896  0.00  0.00    +0.056 C 
BRANCH   9  18
ATOM     18  C7  UNL     1      20.532  79.120  18.064  0.00  0.00    +0.108 C 
ATOM     19  C8  UNL     1      19.719  80.396  17.751  0.00  0.00    +0.024 C 
ATOM     20  C9  UNL     1      18.196  80.184  17.804  0.00  0.00    +0.002 C 
ATOM     21  C10 UNL     1      17.673  80.095  19.249  0.00  0.00    +0.000 C 
ATOM     22  C11 UNL     1      17.667  78.673  19.845  0.00  0.00    +0.000 C 
ATOM     23  C12 UNL     1      18.848  77.766  19.453  0.00  0.00    +0.002 C 
ATOM     24  C13 UNL     1      20.213  78.480  19.437  0.00  0.00    +0.024 C 
ENDBRANCH   9  18
ENDBRANCH   4   7
BRANCH   1  26
ATOM     25  C1  UNL     1      24.229  87.587  19.062  0.00  0.00    +0.253 C 
ATOM     26  O1  UNL     1      24.497  86.738  17.949  0.00  0.00    -0.468 OA
ENDBRANCH   1  26
BRANCH   6  27
ATOM     27  O3  UNL     1      22.153  85.771  16.911  0.00  0.00    -0.472 OA
BRANCH  27  28
ATOM     28  C23 UNL     1      22.264  86.446  15.659  0.00  0.00    +0.206 C 
BRANCH  28  29
ATOM     29  C24 UNL     1      21.375  85.767  14.617  0.00  0.00    +0.051 C 
BRANCH  29  30
ATOM     30  C25 UNL     1      20.998  86.743  13.493  0.00  0.00    +0.051 C 
BRANCH  30  31
ATOM     31  C26 UNL     1      19.636  86.389  12.883  0.00  0.00    +0.206 C 
BRANCH  31  32
ATOM     32  O4  UNL     1      19.194  87.425  12.003  0.00  0.00    -0.475 OA
BRANCH  32  33
ATOM     33  C27 UNL     1      17.977  87.428  11.297  0.00  0.00    +0.139 A 
ATOM     34  C28 UNL     1      17.907  87.410   9.889  0.00  0.00    +0.037 A 
ATOM     35  C29 UNL     1      16.668  87.447   9.243  0.00  0.00    +0.006 A 
ATOM     36  C30 UNL     1      15.478  87.486   9.987  0.00  0.00    +0.040 A 
ATOM     37  C32 UNL     1      15.550  87.488  11.390  0.00  0.00    +0.006 A 
ATOM     38  C33 UNL     1      16.788  87.460  12.036  0.00  0.00    +0.037 A 
BRANCH  36  39
ATOM     39  C31 UNL     1      14.167  87.520   9.303  0.00  0.00    +0.208 A 
ATOM     40  N3  UNL     1      13.122  88.293   9.665  0.00  0.00    -0.106 NA
ATOM     41  N4  UNL     1      12.155  88.013   8.809  0.00  0.00    -0.021 NA
ATOM     42  N5  UNL     1      12.575  87.108   7.945  0.00  0.00    -0.021 NA
ATOM     43  N6  UNL     1      13.825  86.779   8.225  0.00  0.00    -0.106 NA
ENDBRANCH  36  39
ENDBRANCH  32  33
ENDBRANCH  31  32
ENDBRANCH  30  31
ENDBRANCH  29  30
ENDBRANCH  28  29
ENDBRANCH  27  28
ENDBRANCH   6  27
TORSDOF 11
ENDMDL
MODEL 3
REMARK VINA RESULT:      -4.2      2.279      4.763
REMARK  Name = ./data/4u7t_site_bc02/pdb/l1c2.pdb
REMARK  11 active torsions:
REMARK  status: ('A' for Active; 'I' for Inactive)
REMARK    1  A    between atoms: O1_2  and  C2_3
REMARK    2  A    between atoms: C5_6  and  C6_7
REMARK    3  A    between atoms: N2_9  and  C7_10
REMARK    4  A    between atoms: C22_26  and  O3_27
REMARK    5  A    between atoms: O3_27  and  C23_28
REMARK    6  A    between atoms: C23_28  and  C24_29
REMARK    7  A    between atoms: C24_29  and  C25_30
REMARK    8  A    between atoms: C25_30  and  C26_31
REMARK    9  A    between atoms: C26_31  and  O4_32
REMARK   10  A    between atoms: O4_32  and  C27_33
REMARK   11  A    between atoms: C30_36  and  C31_37
REMARK                            x       y       z     vdW  Elec       q    Type
REMARK                         _______ _______ _______ _____ _____    ______ ____
ROOT
ATOM      1  C2  UNL     1      22.929  86.012  17.214  0.00  0.00    +0.172 A 
ATOM      2  C3  UNL     1      23.969  85.598  18.069  0.00  0.00    +0.040 A 
ATOM      3  C4  UNL     1      24.162  84.243  18.344  0.00  0.00    +0.005 A 
ATOM      4  C5  UNL     1      23.332  83.279  17.757  0.00  0.00    +0.018 A 
ATOM      5  C21 UNL     1      22.272  83.690  16.935  0.00  0.00    +0.041 A 
ATOM      6  C22 UNL     1      22.075  85.054  16.644  0.00  0.00    +0.172 A 
ENDROOT
BRANCH   4   7
ATOM      7  C6  UNL     1      23.535  81.839  18.001  0.00  0.00    +0.079 C 
ATOM      8  N1  UNL     1      24.671  81.317  17.637  0.00  0.00    -0.172 NA
ATOM      9  N2  UNL     1      25.080  80.009  17.993  0.00  0.00    -0.222 N 
ATOM     10  C14 UNL     1      24.211  79.158  18.500  0.00  0.00    +0.253 C 
ATOM     11  O2  UNL     1      24.595  77.872  18.886  0.00  0.00    -0.271 OA
ATOM     12  C15 UNL     1      22.762  79.559  18.642  0.00  0.00    +0.091 C 
ATOM     13  C16 UNL     1      22.001  79.229  17.343  0.00  0.00    +0.035 C 
ATOM     14  C17 UNL     1      20.661  79.907  17.249  0.00  0.00    -0.030 C 
ATOM     15  C18 UNL     1      20.348  80.997  17.964  0.00  0.00    -0.030 C 
ATOM     16  C19 UNL     1      21.204  81.496  19.096  0.00  0.00    +0.032 C 
ATOM     17  C20 UNL     1      22.678  81.057  18.981  0.00  0.00    +0.056 C 
BRANCH   9  18
ATOM     18  C7  UNL     1      26.518  79.704  17.843  0.00  0.00    +0.108 C 
ATOM     19  C8  UNL     1      27.335  80.977  17.532  0.00  0.00    +0.024 C 
ATOM     20  C9  UNL     1      28.852  80.730  17.445  0.00  0.00    +0.002 C 
ATOM     21  C10 UNL     1      29.252  80.041  16.128  0.00  0.00    +0.000 C 
ATOM     22  C11 UNL     1      29.229  78.500  16.174  0.00  0.00    +0.000 C 
ATOM     23  C12 UNL     1      28.098  77.862  17.002  0.00  0.00    +0.002 C 
ATOM     24  C13 UNL     1      26.729  78.548  16.835  0.00  0.00    +0.024 C 
ENDBRANCH   9  18
ENDBRANCH   4   7
BRANCH   1  26
ATOM     25  C1  UNL     1      23.564  88.431  17.319  0.00  0.00    +0.253 C 
ATOM     26  O1  UNL     1      22.718  87.364  16.896  0.00  0.00    -0.468 OA
ENDBRANCH   1  26
BRANCH   6  27
ATOM     27  O3  UNL     1      21.056  85.493  15.781  0.00  0.00    -0.472 OA
BRANCH  27  28
ATOM     28  C23 UNL     1      21.195  85.654  14.370  0.00  0.00    +0.206 C 
BRANCH  28  29
ATOM     29  C24 UNL     1      19.829  85.914  13.735  0.00  0.00    +0.051 C 
BRANCH  29  30
ATOM     30  C25 UNL     1      19.962  86.784  12.476  0.00  0.00    +0.051 C 
BRANCH  30  31
ATOM     31  C26 UNL     1      18.586  87.184  11.929  0.00  0.00    +0.206 C 
BRANCH  31  32
ATOM     32  O4  UNL     1      18.685  87.586  10.561  0.00  0.00    -0.475 OA
BRANCH  32  33
ATOM     33  C27 UNL     1      17.882  87.103   9.512  0.00  0.00    +0.139 A 
ATOM     34  C28 UNL     1      16.527  87.458   9.357  0.00  0.00    +0.037 A 
ATOM     35  C29 UNL     1      15.770  86.919   8.312  0.00  0.00    +0.006 A 
ATOM     36  C30 UNL     1      16.355  86.032   7.394  0.00  0.00    +0.040 A 
ATOM     37  C32 UNL     1      17.709  85.693   7.542  0.00  0.00    +0.006 A 
ATOM     38  C33 UNL     1      18.464  86.223   8.591  0.00  0.00    +0.037 A 
BRANCH  36  39
ATOM     39  C31 UNL     1      15.555  85.467   6.285  0.00  0.00    +0.208 A 
ATOM     40  N3  UNL     1      14.516  86.083   5.684  0.00  0.00    -0.106 NA
ATOM     41  N4  UNL     1      14.080  85.239   4.765  0.00  0.00    -0.021 NA
ATOM     42  N5  UNL     1      14.817  84.144   4.784  0.00  0.00    -0.021 NA
ATOM     43  N6  UNL     1      15.744  84.254   5.721  0.00  0.00    -0.106 NA
ENDBRANCH  36  39
ENDBRANCH  32  33
ENDBRANCH  31  32
ENDBRANCH  30  31
ENDBRANCH  29  30
ENDBRANCH  28  29
ENDBRANCH  27  28
ENDBRANCH   6  27
TORSDOF 11
ENDMDL
MODEL 4
REMARK VINA RESULT:      -4.2      3.260      5.498
REMARK  Name = ./data/4u7t_site_bc02/pdb/l1c2.pdb
REMARK  11 active torsions:
REMARK  status: ('A' for Active; 'I' for Inactive)
REMARK    1  A    between atoms: O1_2  and  C2_3
REMARK    2  A    between atoms: C5_6  and  C6_7
REMARK    3  A    between atoms: N2_9  and  C7_10
REMARK    4  A    between atoms: C22_26  and  O3_27
REMARK    5  A    between atoms: O3_27  and  C23_28
REMARK    6  A    between atoms: C23_28  and  C24_29
REMARK    7  A    between atoms: C24_29  and  C25_30
REMARK    8  A    between atoms: C25_30  and  C26_31
REMARK    9  A    between atoms: C26_31  and  O4_32
REMARK   10  A    between atoms: O4_32  and  C27_33
REMARK   11  A    between atoms: C30_36  and  C31_37
REMARK                            x       y       z     vdW  Elec       q    Type
REMARK                         _______ _______ _______ _____ _____    ______ ____
ROOT
ATOM      1  C2  UNL     1      22.628  85.698  16.837  0.00  0.00    +0.172 A 
ATOM      2  C3  UNL     1      23.590  85.381  17.817  0.00  0.00    +0.040 A 
ATOM      3  C4  UNL     1      23.833  84.051  18.166  0.00  0.00    +0.005 A 
ATOM      4  C5  UNL     1      23.133  83.016  17.532  0.00  0.00    +0.018 A 
ATOM      5  C21 UNL     1      22.148  83.331  16.584  0.00  0.00    +0.041 A 
ATOM      6  C22 UNL     1      21.902  84.668  16.217  0.00  0.00    +0.172 A 
ENDROOT
BRANCH   4   7
ATOM      7  C6  UNL     1      23.395  81.601  17.855  0.00  0.00    +0.079 C 
ATOM      8  N1  UNL     1      24.552  81.107  17.519  0.00  0.00    -0.172 NA
ATOM      9  N2  UNL     1      25.013  79.839  17.946  0.00  0.00    -0.222 N 
ATOM     10  C14 UNL     1      24.178  78.982  18.500  0.00  0.00    +0.253 C 
ATOM     11  O2  UNL     1      24.615  77.737  18.956  0.00  0.00    -0.271 OA
ATOM     12  C15 UNL     1      22.714  79.330  18.621  0.00  0.00    +0.091 C 
ATOM     13  C16 UNL     1      21.970  78.898  17.343  0.00  0.00    +0.035 C 
ATOM     14  C17 UNL     1      20.604  79.515  17.212  0.00  0.00    -0.030 C 
ATOM     15  C18 UNL     1      20.245  80.629  17.866  0.00  0.00    -0.030 C 
ATOM     16  C19 UNL     1      21.077  81.224  18.969  0.00  0.00    +0.032 C 
ATOM     17  C20 UNL     1      22.569  80.841  18.877  0.00  0.00    +0.056 C 
BRANCH   9  18
ATOM     18  C7  UNL     1      26.462  79.585  17.812  0.00  0.00    +0.108 C 
ATOM     19  C8  UNL     1      27.275  80.896  17.898  0.00  0.00    +0.024 C 
ATOM     20  C9  UNL     1      28.798  80.682  17.845  0.00  0.00    +0.002 C 
ATOM     21  C10 UNL     1      29.289  80.363  16.421  0.00  0.00    +0.000 C 
ATOM     22  C11 UNL     1      29.290  78.864  16.061  0.00  0.00    +0.000 C 
ATOM     23  C12 UNL     1      28.122  78.030  16.620  0.00  0.00    +0.002 C 
ATOM     24  C13 UNL     1      26.754  78.734  16.553  0.00  0.00    +0.024 C 
ENDBRANCH   9  18
ENDBRANCH   4   7
BRANCH   1  26
ATOM     25  C1  UNL     1      23.140  88.148  16.862  0.00  0.00    +0.253 C 
ATOM     26  O1  UNL     1      22.372  87.022  16.444  0.00  0.00    -0.468 OA
ENDBRANCH   1  26
BRANCH   6  27
ATOM     27  O3  UNL     1      20.960  85.011  15.232  0.00  0.00    -0.472 OA
BRANCH  27  28
ATOM     28  C23 UNL     1      21.271  85.651  13.995  0.00  0.00    +0.206 C 
BRANCH  28  29
ATOM     29  C24 UNL     1      20.148  85.414  12.985  0.00  0.00    +0.051 C 
BRANCH  29  30
ATOM     30  C25 UNL     1      19.399  86.718  12.675  0.00  0.00    +0.051 C 
BRANCH  30  31
ATOM     31  C26 UNL     1      18.052  86.438  11.997  0.00  0.00    +0.206 C 
BRANCH  31  32
ATOM     32  O4  UNL     1      18.052  86.929  10.655  0.00  0.00    -0.475 OA
BRANCH  32  33
ATOM     33  C27 UNL     1      18.455  86.199   9.522  0.00  0.00    +0.139 A 
ATOM     34  C28 UNL     1      19.204  85.007   9.604  0.00  0.00    +0.037 A 
ATOM     35  C29 UNL     1      19.604  84.343   8.440  0.00  0.00    +0.006 A 
ATOM     36  C30 UNL     1      19.251  84.844   7.177  0.00  0.00    +0.040 A 
ATOM     37  C32 UNL     1      18.492  86.024   7.099  0.00  0.00    +0.006 A 
ATOM     38  C33 UNL     1      18.100  86.693   8.261  0.00  0.00    +0.037 A 
BRANCH  36  39
ATOM     39  C31 UNL     1      19.670  84.139   5.947  0.00  0.00    +0.208 A 
ATOM     40  N3  UNL     1      20.090  82.857   5.891  0.00  0.00    -0.106 NA
ATOM     41  N4  UNL     1      20.375  82.627   4.621  0.00  0.00    -0.021 NA
ATOM     42  N5  UNL     1      20.140  83.715   3.910  0.00  0.00    -0.021 NA
ATOM     43  N6  UNL     1      19.700  84.675   4.706  0.00  0.00    -0.106 NA
ENDBRANCH  36  39
ENDBRANCH  32  33
ENDBRANCH  31  32
ENDBRANCH  30  31
ENDBRANCH  29  30
ENDBRANCH  28  29
ENDBRANCH  27  28
ENDBRANCH   6  27
TORSDOF 11
ENDMDL
