MODEL 1
REMARK VINA RESULT:      -6.3      0.000      0.000
REMARK  Name = ./data/4u7t_site_bc02/pdb/l1c1.pdb
REMARK  11 active torsions:
REMARK  status: ('A' for Active; 'I' for Inactive)
REMARK    1  A    between atoms: O1_2  and  C2_3
REMARK    2  A    between atoms: C5_6  and  C6_7
REMARK    3  A    between atoms: N2_9  and  C7_10
REMARK    4  A    between atoms: C22_26  and  O3_27
REMARK    5  A    between atoms: O3_27  and  C23_28
REMARK    6  A    between atoms: C23_28  and  C24_29
REMARK    7  A    between atoms: C24_29  and  C25_30
REMARK    8  A    between atoms: C25_30  and  C26_31
REMARK    9  A    between atoms: C26_31  and  O4_32
REMARK   10  A    between atoms: O4_32  and  C27_33
REMARK   11  A    between atoms: C30_36  and  C31_37
REMARK                            x       y       z     vdW  Elec       q    Type
REMARK                         _______ _______ _______ _____ _____    ______ ____
ROOT
ATOM      1  C2  UNL     1      17.690  86.583  12.868  0.00  0.00    +0.172 A 
ATOM      2  C3  UNL     1      17.588  86.442  14.263  0.00  0.00    +0.040 A 
ATOM      3  C4  UNL     1      18.646  85.910  15.002  0.00  0.00    +0.005 A 
ATOM      4  C5  UNL     1      19.840  85.515  14.370  0.00  0.00    +0.018 A 
ATOM      5  C21 UNL     1      19.941  85.674  12.973  0.00  0.00    +0.041 A 
ATOM      6  C22 UNL     1      18.868  86.189  12.219  0.00  0.00    +0.172 A 
ENDROOT
BRANCH   4   7
ATOM      7  C6  UNL     1      20.980  84.923  15.135  0.00  0.00    +0.079 C 
ATOM      8  N1  UNL     1      20.933  83.659  15.427  0.00  0.00    -0.172 NA
ATOM      9  N2  UNL     1      21.897  82.963  16.180  0.00  0.00    -0.222 N 
ATOM     10  C14 UNL     1      23.033  83.525  16.521  0.00  0.00    +0.253 C 
ATOM     11  O2  UNL     1      24.013  82.769  17.171  0.00  0.00    -0.271 OA
ATOM     12  C15 UNL     1      23.343  84.970  16.166  0.00  0.00    +0.091 C 
ATOM     13  C16 UNL     1      24.107  85.659  17.344  0.00  0.00    +0.035 C 
ATOM     14  C17 UNL     1      23.864  87.142  17.437  0.00  0.00    -0.030 C 
ATOM     15  C18 UNL     1      22.633  87.626  17.249  0.00  0.00    -0.030 C 
ATOM     16  C19 UNL     1      21.543  86.695  16.810  0.00  0.00    +0.032 C 
ATOM     17  C20 UNL     1      22.091  85.784  15.693  0.00  0.00    +0.056 C 
BRANCH   9  18
ATOM     18  C7  UNL     1      21.575  81.553  16.495  0.00  0.00    +0.108 C 
ATOM     19  C8  UNL     1      22.745  80.625  16.096  0.00  0.00    +0.024 C 
ATOM     20  C9  UNL     1      22.336  79.154  15.941  0.00  0.00    +0.002 C 
ATOM     21  C10 UNL     1      21.738  78.544  17.218  0.00  0.00    +0.000 C 
ATOM     22  C11 UNL     1      20.282  78.984  17.449  0.00  0.00    +0.000 C 
ATOM     23  C12 UNL     1      20.120  80.297  18.238  0.00  0.00    +0.002 C 
ATOM     24  C13 UNL     1      21.178  81.387  17.983  0.00  0.00    +0.024 C 
ENDBRANCH   9  18
ENDBRANCH   4   7
BRANCH   1  26
ATOM     25  C1  UNL     1      15.563  87.877  12.612  0.00  0.00    +0.253 C 
ATOM     26  O1  UNL     1      16.643  87.108  12.093  0.00  0.00    -0.468 OA
ENDBRANCH   1  26
BRANCH   6  27
ATOM     27  O3  UNL     1      18.930  86.316  10.822  0.00  0.00    -0.472 OA
BRANCH  27  28
ATOM     28  C23 UNL     1      18.461  87.446  10.089  0.00  0.00    +0.206 C 
BRANCH  28  29
ATOM     29  C24 UNL     1      17.590  86.987   8.918  0.00  0.00    +0.051 C 
BRANCH  29  30
ATOM     30  C25 UNL     1      18.382  86.094   7.951  0.00  0.00    +0.051 C 
BRANCH  30  31
ATOM     31  C26 UNL     1      17.539  85.682   6.745  0.00  0.00    +0.206 C 
BRANCH  31  32
ATOM     32  O4  UNL     1      18.280  84.805   5.899  0.00  0.00    -0.475 OA
BRANCH  32  33
ATOM     33  C27 UNL     1      19.055  83.731   6.364  0.00  0.00    +0.139 A 
ATOM     34  C28 UNL     1      20.462  83.776   6.402  0.00  0.00    +0.037 A 
ATOM     35  C29 UNL     1      21.191  82.684   6.878  0.00  0.00    +0.006 A 
ATOM     36  C30 UNL     1      20.534  81.525   7.334  0.00  0.00    +0.040 A 
ATOM     37  C32 UNL     1      19.128  81.487   7.292  0.00  0.00    +0.006 A 
ATOM     38  C33 UNL     1      18.400  82.578   6.807  0.00  0.00    +0.037 A 
BRANCH  36  39
ATOM     39  C31 UNL     1      21.313  80.370   7.855  0.00  0.00    +0.208 A 
ATOM     40  N3  UNL     1      22.511  80.452   8.476  0.00  0.00    -0.106 NA
ATOM     41  N4  UNL     1      22.842  79.210   8.786  0.00  0.00    -0.021 NA
ATOM     42  N5  UNL     1      21.895  78.384   8.376  0.00  0.00    -0.021 NA
ATOM     43  N6  UNL     1      20.929  79.075   7.794  0.00  0.00    -0.106 NA
ENDBRANCH  36  39
ENDBRANCH  32  33
ENDBRANCH  31  32
ENDBRANCH  30  31
ENDBRANCH  29  30
ENDBRANCH  28  29
ENDBRANCH  27  28
ENDBRANCH   6  27
TORSDOF 11
ENDMDL
