MODEL 1
REMARK VINA RESULT:      -4.3      0.000      0.000
REMARK  Name = ./data/4u7t_site_bc02/pdb/l0c2.pdb
REMARK  11 active torsions:
REMARK  status: ('A' for Active; 'I' for Inactive)
REMARK    1  A    between atoms: O1_2  and  C2_3
REMARK    2  A    between atoms: C5_6  and  C6_7
REMARK    3  A    between atoms: N2_9  and  C7_10
REMARK    4  A    between atoms: C19_23  and  O3_24
REMARK    5  A    between atoms: O3_24  and  C20_25
REMARK    6  A    between atoms: C20_25  and  C21_26
REMARK    7  A    between atoms: C21_26  and  C22_27
REMARK    8  A    between atoms: C22_27  and  C23_28
REMARK    9  A    between atoms: C23_28  and  O4_29
REMARK   10  A    between atoms: O4_29  and  C24_30
REMARK   11  A    between atoms: C27_33  and  C28_34
REMARK                            x       y       z     vdW  Elec       q    Type
REMARK                         _______ _______ _______ _____ _____    ______ ____
ROOT
ATOM      1  C2  UNL     1      38.474  78.806  -4.003  0.00  0.00    +0.172 A 
ATOM      2  C3  UNL     1      37.357  79.587  -4.342  0.00  0.00    +0.040 A 
ATOM      3  C4  UNL     1      36.734  80.388  -3.383  0.00  0.00    +0.005 A 
ATOM      4  C5  UNL     1      37.203  80.423  -2.059  0.00  0.00    +0.019 A 
ATOM      5  C18 UNL     1      38.321  79.633  -1.726  0.00  0.00    +0.041 A 
ATOM      6  C19 UNL     1      38.965  78.834  -2.690  0.00  0.00    +0.172 A 
ENDROOT
BRANCH   4   7
ATOM      7  C6  UNL     1      36.561  81.267  -1.006  0.00  0.00    +0.086 C 
ATOM      8  N1  UNL     1      35.993  82.392  -1.307  0.00  0.00    -0.171 NA
ATOM      9  N2  UNL     1      35.443  82.973  -0.166  0.00  0.00    -0.222 N 
ATOM     10  C14 UNL     1      35.646  82.211   0.859  0.00  0.00    +0.257 C 
ATOM     11  O2  UNL     1      35.184  82.510   2.140  0.00  0.00    -0.270 OA
ATOM     12  C15 UNL     1      36.429  80.987   0.484  0.00  0.00    +0.110 C 
ATOM     13  C16 UNL     1      35.599  79.726   0.779  0.00  0.00    +0.015 C 
ATOM     14  C17 UNL     1      37.780  81.003   1.220  0.00  0.00    +0.015 C 
BRANCH   9  15
ATOM     15  C7  UNL     1      34.711  84.247  -0.201  0.00  0.00    +0.108 C 
ATOM     16  C8  UNL     1      35.087  85.099   1.032  0.00  0.00    +0.024 C 
ATOM     17  C9  UNL     1      34.089  86.224   1.334  0.00  0.00    +0.002 C 
ATOM     18  C10 UNL     1      33.908  87.219   0.177  0.00  0.00    +0.000 C 
ATOM     19  C11 UNL     1      33.040  86.643  -0.954  0.00  0.00    +0.000 C 
ATOM     20  C12 UNL     1      33.825  85.868  -2.028  0.00  0.00    +0.002 C 
ATOM     21  C13 UNL     1      34.992  84.997  -1.525  0.00  0.00    +0.024 C 
ENDBRANCH   9  15
ENDBRANCH   4   7
BRANCH   1  23
ATOM     22  C1  UNL     1      38.956  78.088  -6.353  0.00  0.00    +0.253 C 
ATOM     23  O1  UNL     1      39.127  77.992  -4.942  0.00  0.00    -0.468 OA
ENDBRANCH   1  23
BRANCH   6  24
ATOM     24  O3  UNL     1      40.094  78.052  -2.391  0.00  0.00    -0.472 OA
BRANCH  24  25
ATOM     25  C20 UNL     1      41.115  78.385  -1.450  0.00  0.00    +0.206 C 
BRANCH  25  26
ATOM     26  C21 UNL     1      40.559  78.365  -0.019  0.00  0.00    +0.051 C 
BRANCH  26  27
ATOM     27  C22 UNL     1      40.380  76.938   0.521  0.00  0.00    +0.051 C 
BRANCH  27  28
ATOM     28  C23 UNL     1      38.930  76.448   0.412  0.00  0.00    +0.206 C 
BRANCH  28  29
ATOM     29  O4  UNL     1      38.877  75.209  -0.295  0.00  0.00    -0.475 OA
BRANCH  29  30
ATOM     30  C24 UNL     1      39.170  75.035  -1.658  0.00  0.00    +0.139 A 
ATOM     31  C25 UNL     1      40.467  74.757  -2.130  0.00  0.00    +0.037 A 
ATOM     32  C26 UNL     1      40.700  74.588  -3.499  0.00  0.00    +0.006 A 
ATOM     33  C27 UNL     1      39.644  74.690  -4.423  0.00  0.00    +0.040 A 
ATOM     34  C29 UNL     1      38.352  74.969  -3.945  0.00  0.00    +0.006 A 
ATOM     35  C30 UNL     1      38.122  75.138  -2.577  0.00  0.00    +0.037 A 
BRANCH  33  36
ATOM     36  C28 UNL     1      39.891  74.503  -5.874  0.00  0.00    +0.208 A 
ATOM     37  N3  UNL     1      41.070  74.713  -6.498  0.00  0.00    -0.106 NA
ATOM     38  N4  UNL     1      40.855  74.438  -7.774  0.00  0.00    -0.021 NA
ATOM     39  N5  UNL     1      39.598  74.069  -7.940  0.00  0.00    -0.021 NA
ATOM     40  N6  UNL     1      38.970  74.101  -6.777  0.00  0.00    -0.106 NA
ENDBRANCH  33  36
ENDBRANCH  29  30
ENDBRANCH  28  29
ENDBRANCH  27  28
ENDBRANCH  26  27
ENDBRANCH  25  26
ENDBRANCH  24  25
ENDBRANCH   6  24
TORSDOF 11
ENDMDL
MODEL 2
REMARK VINA RESULT:      -3.8      4.373      6.032
REMARK  Name = ./data/4u7t_site_bc02/pdb/l0c2.pdb
REMARK  11 active torsions:
REMARK  status: ('A' for Active; 'I' for Inactive)
REMARK    1  A    between atoms: O1_2  and  C2_3
REMARK    2  A    between atoms: C5_6  and  C6_7
REMARK    3  A    between atoms: N2_9  and  C7_10
REMARK    4  A    between atoms: C19_23  and  O3_24
REMARK    5  A    between atoms: O3_24  and  C20_25
REMARK    6  A    between atoms: C20_25  and  C21_26
REMARK    7  A    between atoms: C21_26  and  C22_27
REMARK    8  A    between atoms: C22_27  and  C23_28
REMARK    9  A    between atoms: C23_28  and  O4_29
REMARK   10  A    between atoms: O4_29  and  C24_30
REMARK   11  A    between atoms: C27_33  and  C28_34
REMARK                            x       y       z     vdW  Elec       q    Type
REMARK                         _______ _______ _______ _____ _____    ______ ____
ROOT
ATOM      1  C2  UNL     1      38.169  78.630  -4.476  0.00  0.00    +0.172 A 
ATOM      2  C3  UNL     1      37.336  79.715  -4.796  0.00  0.00    +0.040 A 
ATOM      3  C4  UNL     1      36.801  80.521  -3.789  0.00  0.00    +0.005 A 
ATOM      4  C5  UNL     1      37.075  80.258  -2.436  0.00  0.00    +0.019 A 
ATOM      5  C18 UNL     1      37.908  79.165  -2.123  0.00  0.00    +0.041 A 
ATOM      6  C19 UNL     1      38.463  78.358  -3.134  0.00  0.00    +0.172 A 
ENDROOT
BRANCH   4   7
ATOM      7  C6  UNL     1      36.520  81.097  -1.331  0.00  0.00    +0.086 C 
ATOM      8  N1  UNL     1      35.942  82.229  -1.579  0.00  0.00    -0.171 NA
ATOM      9  N2  UNL     1      35.482  82.803  -0.395  0.00  0.00    -0.222 N 
ATOM     10  C14 UNL     1      35.752  82.029   0.605  0.00  0.00    +0.257 C 
ATOM     11  O2  UNL     1      35.388  82.319   1.919  0.00  0.00    -0.270 OA
ATOM     12  C15 UNL     1      36.494  80.802   0.162  0.00  0.00    +0.110 C 
ATOM     13  C16 UNL     1      35.677  79.546   0.505  0.00  0.00    +0.015 C 
ATOM     14  C17 UNL     1      37.896  80.799   0.797  0.00  0.00    +0.015 C 
BRANCH   9  15
ATOM     15  C7  UNL     1      34.760  84.084  -0.364  0.00  0.00    +0.108 C 
ATOM     16  C8  UNL     1      35.115  84.851   0.929  0.00  0.00    +0.024 C 
ATOM     17  C9  UNL     1      34.119  85.964   1.281  0.00  0.00    +0.002 C 
ATOM     18  C10 UNL     1      33.973  87.032   0.186  0.00  0.00    +0.000 C 
ATOM     19  C11 UNL     1      33.126  86.539  -0.998  0.00  0.00    +0.000 C 
ATOM     20  C12 UNL     1      33.929  85.827  -2.102  0.00  0.00    +0.002 C 
ATOM     21  C13 UNL     1      35.077  84.915  -1.630  0.00  0.00    +0.024 C 
ENDBRANCH   9  15
ENDBRANCH   4   7
BRANCH   1  23
ATOM     22  C1  UNL     1      38.464  77.920  -6.860  0.00  0.00    +0.253 C 
ATOM     23  O1  UNL     1      38.726  77.802  -5.464  0.00  0.00    -0.468 OA
ENDBRANCH   1  23
BRANCH   6  24
ATOM     24  O3  UNL     1      39.313  77.273  -2.852  0.00  0.00    -0.472 OA
BRANCH  24  25
ATOM     25  C20 UNL     1      39.952  77.015  -1.601  0.00  0.00    +0.206 C 
BRANCH  25  26
ATOM     26  C21 UNL     1      39.695  75.571  -1.151  0.00  0.00    +0.051 C 
BRANCH  26  27
ATOM     27  C22 UNL     1      38.204  75.201  -1.186  0.00  0.00    +0.051 C 
BRANCH  27  28
ATOM     28  C23 UNL     1      37.723  74.576   0.130  0.00  0.00    +0.206 C 
BRANCH  28  29
ATOM     29  O4  UNL     1      37.667  75.565   1.158  0.00  0.00    -0.475 OA
BRANCH  29  30
ATOM     30  C24 UNL     1      38.064  75.377   2.492  0.00  0.00    +0.139 A 
ATOM     31  C25 UNL     1      37.411  74.485   3.365  0.00  0.00    +0.037 A 
ATOM     32  C26 UNL     1      37.854  74.335   4.682  0.00  0.00    +0.006 A 
ATOM     33  C27 UNL     1      38.958  75.067   5.155  0.00  0.00    +0.040 A 
ATOM     34  C29 UNL     1      39.605  75.955   4.279  0.00  0.00    +0.006 A 
ATOM     35  C30 UNL     1      39.161  76.105   2.963  0.00  0.00    +0.037 A 
BRANCH  33  36
ATOM     36  C28 UNL     1      39.432  74.900   6.552  0.00  0.00    +0.208 A 
ATOM     37  N3  UNL     1      38.644  74.642   7.618  0.00  0.00    -0.106 NA
ATOM     38  N4  UNL     1      39.456  74.575   8.658  0.00  0.00    -0.021 NA
ATOM     39  N5  UNL     1      40.699  74.781   8.262  0.00  0.00    -0.021 NA
ATOM     40  N6  UNL     1      40.718  74.988   6.956  0.00  0.00    -0.106 NA
ENDBRANCH  33  36
ENDBRANCH  29  30
ENDBRANCH  28  29
ENDBRANCH  27  28
ENDBRANCH  26  27
ENDBRANCH  25  26
ENDBRANCH  24  25
ENDBRANCH   6  24
TORSDOF 11
ENDMDL
MODEL 3
REMARK VINA RESULT:      -2.0      1.718      2.693
REMARK  Name = ./data/4u7t_site_bc02/pdb/l0c2.pdb
REMARK  11 active torsions:
REMARK  status: ('A' for Active; 'I' for Inactive)
REMARK    1  A    between atoms: O1_2  and  C2_3
REMARK    2  A    between atoms: C5_6  and  C6_7
REMARK    3  A    between atoms: N2_9  and  C7_10
REMARK    4  A    between atoms: C19_23  and  O3_24
REMARK    5  A    between atoms: O3_24  and  C20_25
REMARK    6  A    between atoms: C20_25  and  C21_26
REMARK    7  A    between atoms: C21_26  and  C22_27
REMARK    8  A    between atoms: C22_27  and  C23_28
REMARK    9  A    between atoms: C23_28  and  O4_29
REMARK   10  A    between atoms: O4_29  and  C24_30
REMARK   11  A    between atoms: C27_33  and  C28_34
REMARK                            x       y       z     vdW  Elec       q    Type
REMARK                         _______ _______ _______ _____ _____    ______ ____
ROOT
ATOM      1  C2  UNL     1      39.878  78.449  -2.094  0.00  0.00    +0.172 A 
ATOM      2  C3  UNL     1      38.714  78.903  -2.737  0.00  0.00    +0.040 A 
ATOM      3  C4  UNL     1      37.827  79.758  -2.079  0.00  0.00    +0.005 A 
ATOM      4  C5  UNL     1      38.073  80.173  -0.759  0.00  0.00    +0.019 A 
ATOM      5  C18 UNL     1      39.241  79.710  -0.120  0.00  0.00    +0.041 A 
ATOM      6  C19 UNL     1      40.148  78.861  -0.782  0.00  0.00    +0.172 A 
ENDROOT
BRANCH   4   7
ATOM      7  C6  UNL     1      37.147  81.086  -0.023  0.00  0.00    +0.086 C 
ATOM      8  N1  UNL     1      36.803  82.231  -0.522  0.00  0.00    -0.171 NA
ATOM      9  N2  UNL     1      35.912  82.879   0.332  0.00  0.00    -0.222 N 
ATOM     10  C14 UNL     1      35.675  82.139   1.367  0.00  0.00    +0.257 C 
ATOM     11  O2  UNL     1      34.798  82.505   2.386  0.00  0.00    -0.270 OA
ATOM     12  C15 UNL     1      36.461  80.861   1.317  0.00  0.00    +0.110 C 
ATOM     13  C16 UNL     1      35.501  79.660   1.298  0.00  0.00    +0.015 C 
ATOM     14  C17 UNL     1      37.447  80.824   2.497  0.00  0.00    +0.015 C 
BRANCH   9  15
ATOM     15  C7  UNL     1      35.327  84.190   0.019  0.00  0.00    +0.108 C 
ATOM     16  C8  UNL     1      34.626  84.134  -1.357  0.00  0.00    +0.024 C 
ATOM     17  C9  UNL     1      34.370  85.513  -1.977  0.00  0.00    +0.002 C 
ATOM     18  C10 UNL     1      33.503  86.434  -1.103  0.00  0.00    +0.000 C 
ATOM     19  C11 UNL     1      34.290  87.022   0.079  0.00  0.00    +0.000 C 
ATOM     20  C12 UNL     1      34.273  86.155   1.352  0.00  0.00    +0.002 C 
ATOM     21  C13 UNL     1      34.357  84.632   1.140  0.00  0.00    +0.024 C 
ENDBRANCH   9  15
ENDBRANCH   4   7
BRANCH   1  23
ATOM     22  C1  UNL     1      41.053  77.581  -4.128  0.00  0.00    +0.253 C 
ATOM     23  O1  UNL     1      40.793  77.593  -2.727  0.00  0.00    -0.468 OA
ENDBRANCH   1  23
BRANCH   6  24
ATOM     24  O3  UNL     1      41.330  78.399  -0.176  0.00  0.00    -0.472 OA
BRANCH  24  25
ATOM     25  C20 UNL     1      41.414  77.388   0.828  0.00  0.00    +0.206 C 
BRANCH  25  26
ATOM     26  C21 UNL     1      40.903  77.919   2.175  0.00  0.00    +0.051 C 
BRANCH  26  27
ATOM     27  C22 UNL     1      40.735  76.806   3.219  0.00  0.00    +0.051 C 
BRANCH  27  28
ATOM     28  C23 UNL     1      39.274  76.614   3.643  0.00  0.00    +0.206 C 
BRANCH  28  29
ATOM     29  O4  UNL     1      38.684  75.534   2.920  0.00  0.00    -0.475 OA
BRANCH  29  30
ATOM     30  C24 UNL     1      38.590  75.445   1.521  0.00  0.00    +0.139 A 
ATOM     31  C25 UNL     1      37.776  76.300   0.754  0.00  0.00    +0.037 A 
ATOM     32  C26 UNL     1      37.726  76.168  -0.636  0.00  0.00    +0.006 A 
ATOM     33  C27 UNL     1      38.488  75.185  -1.291  0.00  0.00    +0.040 A 
ATOM     34  C29 UNL     1      39.298  74.334  -0.520  0.00  0.00    +0.006 A 
ATOM     35  C30 UNL     1      39.347  74.466   0.871  0.00  0.00    +0.037 A 
BRANCH  33  36
ATOM     36  C28 UNL     1      38.441  75.051  -2.768  0.00  0.00    +0.208 A 
ATOM     37  N3  UNL     1      39.397  74.479  -3.531  0.00  0.00    -0.106 NA
ATOM     38  N4  UNL     1      38.967  74.571  -4.777  0.00  0.00    -0.021 NA
ATOM     39  N5  UNL     1      37.791  75.174  -4.795  0.00  0.00    -0.021 NA
ATOM     40  N6  UNL     1      37.436  75.486  -3.560  0.00  0.00    -0.106 NA
ENDBRANCH  33  36
ENDBRANCH  29  30
ENDBRANCH  28  29
ENDBRANCH  27  28
ENDBRANCH  26  27
ENDBRANCH  25  26
ENDBRANCH  24  25
ENDBRANCH   6  24
TORSDOF 11
ENDMDL
