MODEL 1
REMARK VINA RESULT:      -4.4      0.000      0.000
REMARK  Name = ./data/4u7t_site_bc02/pdb/l1c1.pdb
REMARK  11 active torsions:
REMARK  status: ('A' for Active; 'I' for Inactive)
REMARK    1  A    between atoms: O1_2  and  C2_3
REMARK    2  A    between atoms: C5_6  and  C6_7
REMARK    3  A    between atoms: N2_9  and  C7_10
REMARK    4  A    between atoms: C22_26  and  O3_27
REMARK    5  A    between atoms: O3_27  and  C23_28
REMARK    6  A    between atoms: C23_28  and  C24_29
REMARK    7  A    between atoms: C24_29  and  C25_30
REMARK    8  A    between atoms: C25_30  and  C26_31
REMARK    9  A    between atoms: C26_31  and  O4_32
REMARK   10  A    between atoms: O4_32  and  C27_33
REMARK   11  A    between atoms: C30_36  and  C31_37
REMARK                            x       y       z     vdW  Elec       q    Type
REMARK                         _______ _______ _______ _____ _____    ______ ____
ROOT
ATOM      1  C2  UNL     1      -0.174  53.733  -5.715  0.00  0.00    +0.172 A 
ATOM      2  C3  UNL     1       0.334  54.266  -4.518  0.00  0.00    +0.040 A 
ATOM      3  C4  UNL     1      -0.053  53.738  -3.285  0.00  0.00    +0.005 A 
ATOM      4  C5  UNL     1      -0.949  52.655  -3.214  0.00  0.00    +0.018 A 
ATOM      5  C21 UNL     1      -1.441  52.114  -4.420  0.00  0.00    +0.041 A 
ATOM      6  C22 UNL     1      -1.073  52.658  -5.666  0.00  0.00    +0.172 A 
ENDROOT
BRANCH   4   7
ATOM      7  C6  UNL     1      -1.396  52.084  -1.906  0.00  0.00    +0.079 C 
ATOM      8  N1  UNL     1      -0.502  51.880  -0.988  0.00  0.00    -0.172 NA
ATOM      9  N2  UNL     1      -0.750  51.307   0.274  0.00  0.00    -0.222 N 
ATOM     10  C14 UNL     1      -1.973  51.072   0.688  0.00  0.00    +0.253 C 
ATOM     11  O2  UNL     1      -2.187  50.607   1.989  0.00  0.00    -0.271 OA
ATOM     12  C15 UNL     1      -3.179  51.358  -0.192  0.00  0.00    +0.091 C 
ATOM     13  C16 UNL     1      -4.256  50.239  -0.005  0.00  0.00    +0.035 C 
ATOM     14  C17 UNL     1      -5.107  50.009  -1.225  0.00  0.00    -0.030 C 
ATOM     15  C18 UNL     1      -4.543  50.006  -2.436  0.00  0.00    -0.030 C 
ATOM     16  C19 UNL     1      -3.095  50.370  -2.568  0.00  0.00    +0.032 C 
ATOM     17  C20 UNL     1      -2.816  51.610  -1.694  0.00  0.00    +0.056 C 
BRANCH   9  18
ATOM     18  C7  UNL     1       0.442  51.057   1.115  0.00  0.00    +0.108 C 
ATOM     19  C8  UNL     1       1.731  51.108   0.263  0.00  0.00    +0.024 C 
ATOM     20  C9  UNL     1       2.929  50.412   0.921  0.00  0.00    +0.002 C 
ATOM     21  C10 UNL     1       3.310  51.003   2.288  0.00  0.00    +0.000 C 
ATOM     22  C11 UNL     1       2.358  50.547   3.407  0.00  0.00    +0.000 C 
ATOM     23  C12 UNL     1       1.110  51.431   3.595  0.00  0.00    +0.002 C 
ATOM     24  C13 UNL     1       0.495  52.032   2.316  0.00  0.00    +0.024 C 
ENDBRANCH   9  18
ENDBRANCH   4   7
BRANCH   1  26
ATOM     25  C1  UNL     1      -0.278  55.478  -7.506  0.00  0.00    +0.253 C 
ATOM     26  O1  UNL     1       0.188  54.243  -6.973  0.00  0.00    -0.468 OA
ENDBRANCH   1  26
BRANCH   6  27
ATOM     27  O3  UNL     1      -1.584  52.164  -6.876  0.00  0.00    -0.472 OA
BRANCH  27  28
ATOM     28  C23 UNL     1      -2.469  51.051  -6.989  0.00  0.00    +0.206 C 
BRANCH  28  29
ATOM     29  C24 UNL     1      -1.881  50.007  -7.940  0.00  0.00    +0.051 C 
BRANCH  29  30
ATOM     30  C25 UNL     1      -0.467  50.399  -8.393  0.00  0.00    +0.051 C 
BRANCH  30  31
ATOM     31  C26 UNL     1       0.584  50.029  -7.347  0.00  0.00    +0.206 C 
BRANCH  31  32
ATOM     32  O4  UNL     1       1.854  50.567  -7.707  0.00  0.00    -0.475 OA
BRANCH  32  33
ATOM     33  C27 UNL     1       2.813  51.009  -6.782  0.00  0.00    +0.139 A 
ATOM     34  C28 UNL     1       2.564  51.044  -5.397  0.00  0.00    +0.037 A 
ATOM     35  C29 UNL     1       3.550  51.487  -4.512  0.00  0.00    +0.006 A 
ATOM     36  C30 UNL     1       4.810  51.898  -4.988  0.00  0.00    +0.040 A 
ATOM     37  C32 UNL     1       5.051  51.862  -6.374  0.00  0.00    +0.006 A 
ATOM     38  C33 UNL     1       4.059  51.426  -7.259  0.00  0.00    +0.037 A 
BRANCH  36  39
ATOM     39  C31 UNL     1       5.863  52.355  -4.043  0.00  0.00    +0.208 A 
ATOM     40  N3  UNL     1       6.097  51.828  -2.820  0.00  0.00    -0.106 NA
ATOM     41  N4  UNL     1       7.117  52.508  -2.324  0.00  0.00    -0.021 NA
ATOM     42  N5  UNL     1       7.505  53.422  -3.195  0.00  0.00    -0.021 NA
ATOM     43  N6  UNL     1       6.746  53.353  -4.277  0.00  0.00    -0.106 NA
ENDBRANCH  36  39
ENDBRANCH  32  33
ENDBRANCH  31  32
ENDBRANCH  30  31
ENDBRANCH  29  30
ENDBRANCH  28  29
ENDBRANCH  27  28
ENDBRANCH   6  27
TORSDOF 11
ENDMDL
