MODEL 1
REMARK VINA RESULT:      -8.9      0.000      0.000
REMARK  Name = ./data/4u7t_site_bc02/pdb/l1c0.pdb
REMARK  11 active torsions:
REMARK  status: ('A' for Active; 'I' for Inactive)
REMARK    1  A    between atoms: O1_2  and  C2_3
REMARK    2  A    between atoms: C5_6  and  C6_7
REMARK    3  A    between atoms: N2_9  and  C7_10
REMARK    4  A    between atoms: C22_26  and  O3_27
REMARK    5  A    between atoms: O3_27  and  C23_28
REMARK    6  A    between atoms: C23_28  and  C24_29
REMARK    7  A    between atoms: C24_29  and  C25_30
REMARK    8  A    between atoms: C25_30  and  C26_31
REMARK    9  A    between atoms: C26_31  and  O4_32
REMARK   10  A    between atoms: O4_32  and  C27_33
REMARK   11  A    between atoms: C30_36  and  C31_37
REMARK                            x       y       z     vdW  Elec       q    Type
REMARK                         _______ _______ _______ _____ _____    ______ ____
ROOT
ATOM      1  C2  UNL     1      20.368  59.552  -2.713  0.00  0.00    +0.172 A 
ATOM      2  C3  UNL     1      20.463  60.293  -3.902  0.00  0.00    +0.040 A 
ATOM      3  C4  UNL     1      20.289  59.672  -5.138  0.00  0.00    +0.005 A 
ATOM      4  C5  UNL     1      20.008  58.296  -5.223  0.00  0.00    +0.018 A 
ATOM      5  C21 UNL     1      19.901  57.560  -4.027  0.00  0.00    +0.041 A 
ATOM      6  C22 UNL     1      20.101  58.177  -2.774  0.00  0.00    +0.172 A 
ENDROOT
BRANCH   4   7
ATOM      7  C6  UNL     1      19.827  57.656  -6.562  0.00  0.00    +0.079 C 
ATOM      8  N1  UNL     1      20.340  58.237  -7.606  0.00  0.00    -0.172 NA
ATOM      9  N2  UNL     1      20.241  57.737  -8.921  0.00  0.00    -0.222 N 
ATOM     10  C14 UNL     1      19.847  56.504  -9.144  0.00  0.00    +0.253 C 
ATOM     11  O2  UNL     1      19.853  56.001 -10.450  0.00  0.00    -0.271 OA
ATOM     12  C15 UNL     1      19.470  55.597  -7.979  0.00  0.00    +0.091 C 
ATOM     13  C16 UNL     1      18.391  54.556  -8.341  0.00  0.00    +0.035 C 
ATOM     14  C17 UNL     1      17.130  55.261  -8.742  0.00  0.00    -0.030 C 
ATOM     15  C18 UNL     1      16.721  56.334  -8.053  0.00  0.00    -0.030 C 
ATOM     16  C19 UNL     1      17.456  56.812  -6.822  0.00  0.00    +0.032 C 
ATOM     17  C20 UNL     1      18.971  56.422  -6.759  0.00  0.00    +0.056 C 
BRANCH   9  18
ATOM     18  C7  UNL     1      20.673  58.645 -10.005  0.00  0.00    +0.108 C 
ATOM     19  C8  UNL     1      20.808  60.104  -9.491  0.00  0.00    +0.024 C 
ATOM     20  C9  UNL     1      20.492  61.144 -10.578  0.00  0.00    +0.002 C 
ATOM     21  C10 UNL     1      21.634  61.351 -11.578  0.00  0.00    +0.000 C 
ATOM     22  C11 UNL     1      22.015  60.079 -12.346  0.00  0.00    +0.000 C 
ATOM     23  C12 UNL     1      22.802  59.087 -11.473  0.00  0.00    +0.002 C 
ATOM     24  C13 UNL     1      21.920  58.071 -10.731  0.00  0.00    +0.024 C 
ENDBRANCH   9  18
ENDBRANCH   4   7
BRANCH   1  26
ATOM     25  C1  UNL     1      21.701  60.856  -1.046  0.00  0.00    +0.253 C 
ATOM     26  O1  UNL     1      20.537  60.142  -1.451  0.00  0.00    -0.468 OA
ENDBRANCH   1  26
BRANCH   6  27
ATOM     27  O3  UNL     1      20.040  57.464  -1.564  0.00  0.00    -0.472 OA
BRANCH  27  28
ATOM     28  C23 UNL     1      18.848  57.027  -0.912  0.00  0.00    +0.206 C 
BRANCH  28  29
ATOM     29  C24 UNL     1      18.474  55.612  -1.363  0.00  0.00    +0.051 C 
BRANCH  29  30
ATOM     30  C25 UNL     1      16.998  55.309  -1.080  0.00  0.00    +0.051 C 
BRANCH  30  31
ATOM     31  C26 UNL     1      16.845  54.275   0.035  0.00  0.00    +0.206 C 
BRANCH  31  32
ATOM     32  O4  UNL     1      16.439  54.931   1.236  0.00  0.00    -0.475 OA
BRANCH  32  33
ATOM     33  C27 UNL     1      17.172  55.932   1.888  0.00  0.00    +0.139 A 
ATOM     34  C28 UNL     1      16.658  57.230   1.886  0.00  0.00    +0.037 A 
ATOM     35  C29 UNL     1      17.360  58.275   2.490  0.00  0.00    +0.006 A 
ATOM     36  C30 UNL     1      18.592  58.035   3.130  0.00  0.00    +0.040 A 
ATOM     37  C32 UNL     1      19.096  56.719   3.153  0.00  0.00    +0.006 A 
ATOM     38  C33 UNL     1      18.396  55.678   2.532  0.00  0.00    +0.037 A 
BRANCH  36  39
ATOM     39  C31 UNL     1      19.346  59.148   3.761  0.00  0.00    +0.208 A 
ATOM     40  N3  UNL     1      19.934  60.169   3.099  0.00  0.00    -0.106 NA
ATOM     41  N4  UNL     1      20.469  60.940   4.031  0.00  0.00    -0.021 NA
ATOM     42  N5  UNL     1      20.230  60.424   5.223  0.00  0.00    -0.021 NA
ATOM     43  N6  UNL     1      19.532  59.311   5.090  0.00  0.00    -0.106 NA
ENDBRANCH  36  39
ENDBRANCH  32  33
ENDBRANCH  31  32
ENDBRANCH  30  31
ENDBRANCH  29  30
ENDBRANCH  28  29
ENDBRANCH  27  28
ENDBRANCH   6  27
TORSDOF 11
ENDMDL
MODEL 2
REMARK VINA RESULT:      -7.8      2.497      2.978
REMARK  Name = ./data/4u7t_site_bc02/pdb/l1c0.pdb
REMARK  11 active torsions:
REMARK  status: ('A' for Active; 'I' for Inactive)
REMARK    1  A    between atoms: O1_2  and  C2_3
REMARK    2  A    between atoms: C5_6  and  C6_7
REMARK    3  A    between atoms: N2_9  and  C7_10
REMARK    4  A    between atoms: C22_26  and  O3_27
REMARK    5  A    between atoms: O3_27  and  C23_28
REMARK    6  A    between atoms: C23_28  and  C24_29
REMARK    7  A    between atoms: C24_29  and  C25_30
REMARK    8  A    between atoms: C25_30  and  C26_31
REMARK    9  A    between atoms: C26_31  and  O4_32
REMARK   10  A    between atoms: O4_32  and  C27_33
REMARK   11  A    between atoms: C30_36  and  C31_37
REMARK                            x       y       z     vdW  Elec       q    Type
REMARK                         _______ _______ _______ _____ _____    ______ ____
ROOT
ATOM      1  C2  UNL     1      20.572  60.718  -2.878  0.00  0.00    +0.172 A 
ATOM      2  C3  UNL     1      20.603  61.261  -4.172  0.00  0.00    +0.040 A 
ATOM      3  C4  UNL     1      20.418  60.443  -5.287  0.00  0.00    +0.005 A 
ATOM      4  C5  UNL     1      20.191  59.063  -5.141  0.00  0.00    +0.018 A 
ATOM      5  C21 UNL     1      20.147  58.526  -3.840  0.00  0.00    +0.041 A 
ATOM      6  C22 UNL     1      20.359  59.343  -2.709  0.00  0.00    +0.172 A 
ENDROOT
BRANCH   4   7
ATOM      7  C6  UNL     1      19.997  58.210  -6.354  0.00  0.00    +0.079 C 
ATOM      8  N1  UNL     1      20.506  58.607  -7.483  0.00  0.00    -0.172 NA
ATOM      9  N2  UNL     1      20.394  57.896  -8.696  0.00  0.00    -0.222 N 
ATOM     10  C14 UNL     1      19.995  56.644  -8.709  0.00  0.00    +0.253 C 
ATOM     11  O2  UNL     1      19.989  55.931  -9.912  0.00  0.00    -0.271 OA
ATOM     12  C15 UNL     1      19.623  55.945  -7.406  0.00  0.00    +0.091 C 
ATOM     13  C16 UNL     1      18.537  54.864  -7.583  0.00  0.00    +0.035 C 
ATOM     14  C17 UNL     1      17.276  55.499  -8.087  0.00  0.00    -0.030 C 
ATOM     15  C18 UNL     1      16.876  56.674  -7.584  0.00  0.00    -0.030 C 
ATOM     16  C19 UNL     1      17.622  57.346  -6.454  0.00  0.00    +0.032 C 
ATOM     17  C20 UNL     1      19.136  56.965  -6.337  0.00  0.00    +0.056 C 
BRANCH   9  18
ATOM     18  C7  UNL     1      20.822  58.608  -9.919  0.00  0.00    +0.108 C 
ATOM     19  C8  UNL     1      20.988  60.128  -9.650  0.00  0.00    +0.024 C 
ATOM     20  C9  UNL     1      20.670  60.984 -10.887  0.00  0.00    +0.002 C 
ATOM     21  C10 UNL     1      21.798  61.006 -11.923  0.00  0.00    +0.000 C 
ATOM     22  C11 UNL     1      22.146  59.620 -12.480  0.00  0.00    +0.000 C 
ATOM     23  C12 UNL     1      22.933  58.769 -11.469  0.00  0.00    +0.002 C 
ATOM     24  C13 UNL     1      22.048  57.902 -10.560  0.00  0.00    +0.024 C 
ENDBRANCH   9  18
ENDBRANCH   4   7
BRANCH   1  26
ATOM     25  C1  UNL     1      22.019  61.937  -1.242  0.00  0.00    +0.253 C 
ATOM     26  O1  UNL     1      20.753  61.509  -1.733  0.00  0.00    -0.468 OA
ENDBRANCH   1  26
BRANCH   6  27
ATOM     27  O3  UNL     1      20.361  58.832  -1.400  0.00  0.00    -0.472 OA
BRANCH  27  28
ATOM     28  C23 UNL     1      19.631  57.692  -0.948  0.00  0.00    +0.206 C 
BRANCH  28  29
ATOM     29  C24 UNL     1      19.713  57.568   0.576  0.00  0.00    +0.051 C 
BRANCH  29  30
ATOM     30  C25 UNL     1      18.317  57.498   1.205  0.00  0.00    +0.051 C 
BRANCH  30  31
ATOM     31  C26 UNL     1      18.119  56.197   1.981  0.00  0.00    +0.206 C 
BRANCH  31  32
ATOM     32  O4  UNL     1      16.749  56.078   2.364  0.00  0.00    -0.475 OA
BRANCH  32  33
ATOM     33  C27 UNL     1      16.147  56.790   3.410  0.00  0.00    +0.139 A 
ATOM     34  C28 UNL     1      16.949  57.192   4.481  0.00  0.00    +0.037 A 
ATOM     35  C29 UNL     1      16.398  57.874   5.567  0.00  0.00    +0.006 A 
ATOM     36  C30 UNL     1      15.025  58.187   5.595  0.00  0.00    +0.040 A 
ATOM     37  C32 UNL     1      14.222  57.803   4.502  0.00  0.00    +0.006 A 
ATOM     38  C33 UNL     1      14.776  57.106   3.423  0.00  0.00    +0.037 A 
BRANCH  36  39
ATOM     39  C31 UNL     1      14.435  58.901   6.757  0.00  0.00    +0.208 A 
ATOM     40  N3  UNL     1      14.070  58.328   7.924  0.00  0.00    -0.106 NA
ATOM     41  N4  UNL     1      13.620  59.313   8.682  0.00  0.00    -0.021 NA
ATOM     42  N5  UNL     1      13.697  60.453   8.019  0.00  0.00    -0.021 NA
ATOM     43  N6  UNL     1      14.202  60.232   6.819  0.00  0.00    -0.106 NA
ENDBRANCH  36  39
ENDBRANCH  32  33
ENDBRANCH  31  32
ENDBRANCH  30  31
ENDBRANCH  29  30
ENDBRANCH  28  29
ENDBRANCH  27  28
ENDBRANCH   6  27
TORSDOF 11
ENDMDL
MODEL 3
REMARK VINA RESULT:      -7.7      3.427      5.390
REMARK  Name = ./data/4u7t_site_bc02/pdb/l1c0.pdb
REMARK  11 active torsions:
REMARK  status: ('A' for Active; 'I' for Inactive)
REMARK    1  A    between atoms: O1_2  and  C2_3
REMARK    2  A    between atoms: C5_6  and  C6_7
REMARK    3  A    between atoms: N2_9  and  C7_10
REMARK    4  A    between atoms: C22_26  and  O3_27
REMARK    5  A    between atoms: O3_27  and  C23_28
REMARK    6  A    between atoms: C23_28  and  C24_29
REMARK    7  A    between atoms: C24_29  and  C25_30
REMARK    8  A    between atoms: C25_30  and  C26_31
REMARK    9  A    between atoms: C26_31  and  O4_32
REMARK   10  A    between atoms: O4_32  and  C27_33
REMARK   11  A    between atoms: C30_36  and  C31_37
REMARK                            x       y       z     vdW  Elec       q    Type
REMARK                         _______ _______ _______ _____ _____    ______ ____
ROOT
ATOM      1  C2  UNL     1      19.988  62.319  -4.106  0.00  0.00    +0.172 A 
ATOM      2  C3  UNL     1      19.182  61.875  -5.168  0.00  0.00    +0.040 A 
ATOM      3  C4  UNL     1      19.028  60.511  -5.415  0.00  0.00    +0.005 A 
ATOM      4  C5  UNL     1      19.664  59.553  -4.607  0.00  0.00    +0.018 A 
ATOM      5  C21 UNL     1      20.459  60.003  -3.535  0.00  0.00    +0.041 A 
ATOM      6  C22 UNL     1      20.641  61.381  -3.294  0.00  0.00    +0.172 A 
ENDROOT
BRANCH   4   7
ATOM      7  C6  UNL     1      19.481  58.097  -4.896  0.00  0.00    +0.079 C 
ATOM      8  N1  UNL     1      18.692  57.749  -5.870  0.00  0.00    -0.172 NA
ATOM      9  N2  UNL     1      18.435  56.414  -6.244  0.00  0.00    -0.222 N 
ATOM     10  C14 UNL     1      19.189  55.433  -5.800  0.00  0.00    +0.253 C 
ATOM     11  O2  UNL     1      18.975  54.131  -6.265  0.00  0.00    -0.271 OA
ATOM     12  C15 UNL     1      20.346  55.725  -4.852  0.00  0.00    +0.091 C 
ATOM     13  C16 UNL     1      20.639  54.569  -3.874  0.00  0.00    +0.035 C 
ATOM     14  C17 UNL     1      19.441  54.332  -3.005  0.00  0.00    -0.030 C 
ATOM     15  C18 UNL     1      18.760  55.374  -2.512  0.00  0.00    -0.030 C 
ATOM     16  C19 UNL     1      19.215  56.797  -2.743  0.00  0.00    +0.032 C 
ATOM     17  C20 UNL     1      20.086  57.017  -4.025  0.00  0.00    +0.056 C 
BRANCH   9  18
ATOM     18  C7  UNL     1      17.336  56.201  -7.209  0.00  0.00    +0.108 C 
ATOM     19  C8  UNL     1      17.889  55.860  -8.619  0.00  0.00    +0.024 C 
ATOM     20  C9  UNL     1      16.976  56.364  -9.749  0.00  0.00    +0.002 C 
ATOM     21  C10 UNL     1      15.744  55.484  -9.979  0.00  0.00    +0.000 C 
ATOM     22  C11 UNL     1      14.830  55.375  -8.751  0.00  0.00    +0.000 C 
ATOM     23  C12 UNL     1      15.424  54.462  -7.666  0.00  0.00    +0.002 C 
ATOM     24  C13 UNL     1      16.295  55.200  -6.637  0.00  0.00    +0.024 C 
ENDBRANCH   9  18
ENDBRANCH   4   7
BRANCH   1  26
ATOM     25  C1  UNL     1      19.150  64.538  -3.314  0.00  0.00    +0.253 C 
ATOM     26  O1  UNL     1      20.167  63.683  -3.825  0.00  0.00    -0.468 OA
ENDBRANCH   1  26
BRANCH   6  27
ATOM     27  O3  UNL     1      21.459  61.864  -2.258  0.00  0.00    -0.472 OA
BRANCH  27  28
ATOM     28  C23 UNL     1      22.058  61.074  -1.232  0.00  0.00    +0.206 C 
BRANCH  28  29
ATOM     29  C24 UNL     1      22.849  61.958  -0.263  0.00  0.00    +0.051 C 
BRANCH  29  30
ATOM     30  C25 UNL     1      21.941  62.540   0.827  0.00  0.00    +0.051 C 
BRANCH  30  31
ATOM     31  C26 UNL     1      22.444  62.177   2.224  0.00  0.00    +0.206 C 
BRANCH  31  32
ATOM     32  O4  UNL     1      21.330  61.883   3.066  0.00  0.00    -0.475 OA
BRANCH  32  33
ATOM     33  C27 UNL     1      20.738  60.620   3.199  0.00  0.00    +0.139 A 
ATOM     34  C28 UNL     1      20.129  60.057   2.075  0.00  0.00    +0.037 A 
ATOM     35  C29 UNL     1      19.494  58.817   2.156  0.00  0.00    +0.006 A 
ATOM     36  C30 UNL     1      19.474  58.099   3.367  0.00  0.00    +0.040 A 
ATOM     37  C32 UNL     1      20.112  58.657   4.493  0.00  0.00    +0.006 A 
ATOM     38  C33 UNL     1      20.733  59.908   4.412  0.00  0.00    +0.037 A 
BRANCH  36  39
ATOM     39  C31 UNL     1      18.787  56.785   3.457  0.00  0.00    +0.208 A 
ATOM     40  N3  UNL     1      19.313  55.600   3.078  0.00  0.00    -0.106 NA
ATOM     41  N4  UNL     1      18.388  54.694   3.346  0.00  0.00    -0.021 NA
ATOM     42  N5  UNL     1      17.327  55.285   3.866  0.00  0.00    -0.021 NA
ATOM     43  N6  UNL     1      17.544  56.585   3.951  0.00  0.00    -0.106 NA
ENDBRANCH  36  39
ENDBRANCH  32  33
ENDBRANCH  31  32
ENDBRANCH  30  31
ENDBRANCH  29  30
ENDBRANCH  28  29
ENDBRANCH  27  28
ENDBRANCH   6  27
TORSDOF 11
ENDMDL
MODEL 4
REMARK VINA RESULT:      -7.6      2.521      4.343
REMARK  Name = ./data/4u7t_site_bc02/pdb/l1c0.pdb
REMARK  11 active torsions:
REMARK  status: ('A' for Active; 'I' for Inactive)
REMARK    1  A    between atoms: O1_2  and  C2_3
REMARK    2  A    between atoms: C5_6  and  C6_7
REMARK    3  A    between atoms: N2_9  and  C7_10
REMARK    4  A    between atoms: C22_26  and  O3_27
REMARK    5  A    between atoms: O3_27  and  C23_28
REMARK    6  A    between atoms: C23_28  and  C24_29
REMARK    7  A    between atoms: C24_29  and  C25_30
REMARK    8  A    between atoms: C25_30  and  C26_31
REMARK    9  A    between atoms: C26_31  and  O4_32
REMARK   10  A    between atoms: O4_32  and  C27_33
REMARK   11  A    between atoms: C30_36  and  C31_37
REMARK                            x       y       z     vdW  Elec       q    Type
REMARK                         _______ _______ _______ _____ _____    ______ ____
ROOT
ATOM      1  C2  UNL     1      19.868  57.153   0.644  0.00  0.00    +0.172 A 
ATOM      2  C3  UNL     1      20.603  58.261   0.193  0.00  0.00    +0.040 A 
ATOM      3  C4  UNL     1      20.513  58.675  -1.136  0.00  0.00    +0.005 A 
ATOM      4  C5  UNL     1      19.682  58.001  -2.049  0.00  0.00    +0.018 A 
ATOM      5  C21 UNL     1      18.936  56.899  -1.587  0.00  0.00    +0.041 A 
ATOM      6  C22 UNL     1      19.042  56.458  -0.251  0.00  0.00    +0.172 A 
ENDROOT
BRANCH   4   7
ATOM      7  C6  UNL     1      19.605  58.467  -3.468  0.00  0.00    +0.079 C 
ATOM      8  N1  UNL     1      19.654  57.580  -4.418  0.00  0.00    -0.172 NA
ATOM      9  N2  UNL     1      19.591  57.888  -5.793  0.00  0.00    -0.222 N 
ATOM     10  C14 UNL     1      19.208  59.077  -6.201  0.00  0.00    +0.253 C 
ATOM     11  O2  UNL     1      19.058  59.325  -7.569  0.00  0.00    -0.271 OA
ATOM     12  C15 UNL     1      18.845  60.154  -5.185  0.00  0.00    +0.091 C 
ATOM     13  C16 UNL     1      19.142  61.584  -5.682  0.00  0.00    +0.035 C 
ATOM     14  C17 UNL     1      20.611  61.732  -5.934  0.00  0.00    -0.030 C 
ATOM     15  C18 UNL     1      21.490  61.203  -5.073  0.00  0.00    -0.030 C 
ATOM     16  C19 UNL     1      21.041  60.523  -3.801  0.00  0.00    +0.032 C 
ATOM     17  C20 UNL     1      19.590  59.935  -3.838  0.00  0.00    +0.056 C 
BRANCH   9  18
ATOM     18  C7  UNL     1      19.901  56.786  -6.729  0.00  0.00    +0.108 C 
ATOM     19  C8  UNL     1      21.161  57.110  -7.575  0.00  0.00    +0.024 C 
ATOM     20  C9  UNL     1      21.107  56.485  -8.979  0.00  0.00    +0.002 C 
ATOM     21  C10 UNL     1      21.435  54.989  -8.996  0.00  0.00    +0.000 C 
ATOM     22  C11 UNL     1      20.477  54.142  -8.148  0.00  0.00    +0.000 C 
ATOM     23  C12 UNL     1      20.740  54.302  -6.641  0.00  0.00    +0.002 C 
ATOM     24  C13 UNL     1      19.926  55.426  -5.981  0.00  0.00    +0.024 C 
ENDBRANCH   9  18
ENDBRANCH   4   7
BRANCH   1  26
ATOM     25  C1  UNL     1      21.040  56.925   2.842  0.00  0.00    +0.253 C 
ATOM     26  O1  UNL     1      19.933  56.707   1.974  0.00  0.00    -0.468 OA
ENDBRANCH   1  26
BRANCH   6  27
ATOM     27  O3  UNL     1      18.342  55.339   0.232  0.00  0.00    -0.472 OA
BRANCH  27  28
ATOM     28  C23 UNL     1      16.978  55.025  -0.045  0.00  0.00    +0.206 C 
BRANCH  28  29
ATOM     29  C24 UNL     1      16.396  54.134   1.055  0.00  0.00    +0.051 C 
BRANCH  29  30
ATOM     30  C25 UNL     1      14.889  54.362   1.218  0.00  0.00    +0.051 C 
BRANCH  30  31
ATOM     31  C26 UNL     1      14.511  54.570   2.684  0.00  0.00    +0.206 C 
BRANCH  31  32
ATOM     32  O4  UNL     1      14.381  55.967   2.946  0.00  0.00    -0.475 OA
BRANCH  32  33
ATOM     33  C27 UNL     1      15.433  56.811   3.323  0.00  0.00    +0.139 A 
ATOM     34  C28 UNL     1      16.052  57.575   2.330  0.00  0.00    +0.037 A 
ATOM     35  C29 UNL     1      17.127  58.409   2.640  0.00  0.00    +0.006 A 
ATOM     36  C30 UNL     1      17.598  58.511   3.963  0.00  0.00    +0.040 A 
ATOM     37  C32 UNL     1      16.956  57.759   4.968  0.00  0.00    +0.006 A 
ATOM     38  C33 UNL     1      15.888  56.913   4.650  0.00  0.00    +0.037 A 
BRANCH  36  39
ATOM     39  C31 UNL     1      18.751  59.388   4.290  0.00  0.00    +0.208 A 
ATOM     40  N3  UNL     1      19.153  59.720   5.537  0.00  0.00    -0.106 NA
ATOM     41  N4  UNL     1      20.217  60.488   5.378  0.00  0.00    -0.021 NA
ATOM     42  N5  UNL     1      20.469  60.635   4.089  0.00  0.00    -0.021 NA
ATOM     43  N6  UNL     1      19.578  59.961   3.387  0.00  0.00    -0.106 NA
ENDBRANCH  36  39
ENDBRANCH  32  33
ENDBRANCH  31  32
ENDBRANCH  30  31
ENDBRANCH  29  30
ENDBRANCH  28  29
ENDBRANCH  27  28
ENDBRANCH   6  27
TORSDOF 11
ENDMDL
MODEL 5
REMARK VINA RESULT:      -6.7      3.541      5.450
REMARK  Name = ./data/4u7t_site_bc02/pdb/l1c0.pdb
REMARK  11 active torsions:
REMARK  status: ('A' for Active; 'I' for Inactive)
REMARK    1  A    between atoms: O1_2  and  C2_3
REMARK    2  A    between atoms: C5_6  and  C6_7
REMARK    3  A    between atoms: N2_9  and  C7_10
REMARK    4  A    between atoms: C22_26  and  O3_27
REMARK    5  A    between atoms: O3_27  and  C23_28
REMARK    6  A    between atoms: C23_28  and  C24_29
REMARK    7  A    between atoms: C24_29  and  C25_30
REMARK    8  A    between atoms: C25_30  and  C26_31
REMARK    9  A    between atoms: C26_31  and  O4_32
REMARK   10  A    between atoms: O4_32  and  C27_33
REMARK   11  A    between atoms: C30_36  and  C31_37
REMARK                            x       y       z     vdW  Elec       q    Type
REMARK                         _______ _______ _______ _____ _____    ______ ____
ROOT
ATOM      1  C2  UNL     1      20.017  57.520   0.696  0.00  0.00    +0.172 A 
ATOM      2  C3  UNL     1      20.751  58.598   0.173  0.00  0.00    +0.040 A 
ATOM      3  C4  UNL     1      20.622  58.955  -1.169  0.00  0.00    +0.005 A 
ATOM      4  C5  UNL     1      19.754  58.254  -2.025  0.00  0.00    +0.018 A 
ATOM      5  C21 UNL     1      19.010  57.183  -1.492  0.00  0.00    +0.041 A 
ATOM      6  C22 UNL     1      19.154  56.799  -0.142  0.00  0.00    +0.172 A 
ENDROOT
BRANCH   4   7
ATOM      7  C6  UNL     1      19.637  58.658  -3.459  0.00  0.00    +0.079 C 
ATOM      8  N1  UNL     1      19.640  57.731  -4.371  0.00  0.00    -0.172 NA
ATOM      9  N2  UNL     1      19.537  57.980  -5.755  0.00  0.00    -0.222 N 
ATOM     10  C14 UNL     1      19.158  59.157  -6.202  0.00  0.00    +0.253 C 
ATOM     11  O2  UNL     1      18.966  59.347  -7.574  0.00  0.00    -0.271 OA
ATOM     12  C15 UNL     1      18.845  60.282  -5.223  0.00  0.00    +0.091 C 
ATOM     13  C16 UNL     1      19.146  61.684  -5.791  0.00  0.00    +0.035 C 
ATOM     14  C17 UNL     1      20.608  61.797  -6.098  0.00  0.00    -0.030 C 
ATOM     15  C18 UNL     1      21.508  61.292  -5.244  0.00  0.00    -0.030 C 
ATOM     16  C19 UNL     1      21.091  60.675  -3.929  0.00  0.00    +0.032 C 
ATOM     17  C20 UNL     1      19.631  60.109  -3.893  0.00  0.00    +0.056 C 
BRANCH   9  18
ATOM     18  C7  UNL     1      19.799  56.834  -6.652  0.00  0.00    +0.108 C 
ATOM     19  C8  UNL     1      20.940  57.158  -7.653  0.00  0.00    +0.024 C 
ATOM     20  C9  UNL     1      20.764  56.439  -9.001  0.00  0.00    +0.002 C 
ATOM     21  C10 UNL     1      21.166  54.962  -8.964  0.00  0.00    +0.000 C 
ATOM     22  C11 UNL     1      20.353  54.130  -7.963  0.00  0.00    +0.000 C 
ATOM     23  C12 UNL     1      20.772  54.401  -6.508  0.00  0.00    +0.002 C 
ATOM     24  C13 UNL     1      19.978  55.528  -5.830  0.00  0.00    +0.024 C 
ENDBRANCH   9  18
ENDBRANCH   4   7
BRANCH   1  26
ATOM     25  C1  UNL     1      19.246  57.575   3.074  0.00  0.00    +0.253 C 
ATOM     26  O1  UNL     1      20.119  57.131   2.041  0.00  0.00    -0.468 OA
ENDBRANCH   1  26
BRANCH   6  27
ATOM     27  O3  UNL     1      18.457  55.711   0.412  0.00  0.00    -0.472 OA
BRANCH  27  28
ATOM     28  C23 UNL     1      17.083  55.399   0.186  0.00  0.00    +0.206 C 
BRANCH  28  29
ATOM     29  C24 UNL     1      16.276  55.550   1.478  0.00  0.00    +0.051 C 
BRANCH  29  30
ATOM     30  C25 UNL     1      15.210  54.455   1.600  0.00  0.00    +0.051 C 
BRANCH  30  31
ATOM     31  C26 UNL     1      14.074  54.883   2.528  0.00  0.00    +0.206 C 
BRANCH  31  32
ATOM     32  O4  UNL     1      14.277  56.236   2.932  0.00  0.00    -0.475 OA
BRANCH  32  33
ATOM     33  C27 UNL     1      14.226  56.692   4.256  0.00  0.00    +0.139 A 
ATOM     34  C28 UNL     1      14.282  55.745   5.281  0.00  0.00    +0.037 A 
ATOM     35  C29 UNL     1      14.201  56.137   6.618  0.00  0.00    +0.006 A 
ATOM     36  C30 UNL     1      14.081  57.498   6.960  0.00  0.00    +0.040 A 
ATOM     37  C32 UNL     1      14.051  58.454   5.925  0.00  0.00    +0.006 A 
ATOM     38  C33 UNL     1      14.116  58.055   4.586  0.00  0.00    +0.037 A 
BRANCH  36  39
ATOM     39  C31 UNL     1      13.982  57.915   8.383  0.00  0.00    +0.208 A 
ATOM     40  N3  UNL     1      13.422  59.062   8.825  0.00  0.00    -0.106 NA
ATOM     41  N4  UNL     1      13.522  59.026  10.143  0.00  0.00    -0.021 NA
ATOM     42  N5  UNL     1      14.121  57.907  10.511  0.00  0.00    -0.021 NA
ATOM     43  N6  UNL     1      14.417  57.193   9.440  0.00  0.00    -0.106 NA
ENDBRANCH  36  39
ENDBRANCH  32  33
ENDBRANCH  31  32
ENDBRANCH  30  31
ENDBRANCH  29  30
ENDBRANCH  28  29
ENDBRANCH  27  28
ENDBRANCH   6  27
TORSDOF 11
ENDMDL
