MODEL 1
REMARK VINA RESULT:      -7.4      0.000      0.000
REMARK  Name = ./data/4u7t_site_bc02/pdb/l1c2.pdb
REMARK  11 active torsions:
REMARK  status: ('A' for Active; 'I' for Inactive)
REMARK    1  A    between atoms: O1_2  and  C2_3
REMARK    2  A    between atoms: C5_6  and  C6_7
REMARK    3  A    between atoms: N2_9  and  C7_10
REMARK    4  A    between atoms: C22_26  and  O3_27
REMARK    5  A    between atoms: O3_27  and  C23_28
REMARK    6  A    between atoms: C23_28  and  C24_29
REMARK    7  A    between atoms: C24_29  and  C25_30
REMARK    8  A    between atoms: C25_30  and  C26_31
REMARK    9  A    between atoms: C26_31  and  O4_32
REMARK   10  A    between atoms: O4_32  and  C27_33
REMARK   11  A    between atoms: C30_36  and  C31_37
REMARK                            x       y       z     vdW  Elec       q    Type
REMARK                         _______ _______ _______ _____ _____    ______ ____
ROOT
ATOM      1  C2  UNL     1      40.956  68.623 -12.415  0.00  0.00    +0.172 A 
ATOM      2  C3  UNL     1      41.634  69.078 -13.563  0.00  0.00    +0.040 A 
ATOM      3  C4  UNL     1      41.747  70.445 -13.823  0.00  0.00    +0.005 A 
ATOM      4  C5  UNL     1      41.200  71.380 -12.934  0.00  0.00    +0.018 A 
ATOM      5  C21 UNL     1      40.492  70.930 -11.810  0.00  0.00    +0.041 A 
ATOM      6  C22 UNL     1      40.381  69.554 -11.534  0.00  0.00    +0.172 A 
ENDROOT
BRANCH   4   7
ATOM      7  C6  UNL     1      41.336  72.830 -13.165  0.00  0.00    +0.079 C 
ATOM      8  N1  UNL     1      41.182  73.623 -12.144  0.00  0.00    -0.172 NA
ATOM      9  N2  UNL     1      41.486  75.005 -12.175  0.00  0.00    -0.222 N 
ATOM     10  C14 UNL     1      41.699  75.611 -13.326  0.00  0.00    +0.253 C 
ATOM     11  O2  UNL     1      42.028  76.967 -13.381  0.00  0.00    -0.271 OA
ATOM     12  C15 UNL     1      41.556  74.843 -14.618  0.00  0.00    +0.091 C 
ATOM     13  C16 UNL     1      40.094  74.906 -15.101  0.00  0.00    +0.035 C 
ATOM     14  C17 UNL     1      39.774  73.889 -16.164  0.00  0.00    -0.030 C 
ATOM     15  C18 UNL     1      40.508  72.785 -16.355  0.00  0.00    -0.030 C 
ATOM     16  C19 UNL     1      41.847  72.577 -15.700  0.00  0.00    +0.032 C 
ATOM     17  C20 UNL     1      42.017  73.391 -14.400  0.00  0.00    +0.056 C 
BRANCH   9  18
ATOM     18  C7  UNL     1      41.628  75.679 -10.868  0.00  0.00    +0.108 C 
ATOM     19  C8  UNL     1      43.106  75.741 -10.422  0.00  0.00    +0.024 C 
ATOM     20  C9  UNL     1      43.321  76.505  -9.104  0.00  0.00    +0.002 C 
ATOM     21  C10 UNL     1      42.891  75.679  -7.879  0.00  0.00    +0.000 C 
ATOM     22  C11 UNL     1      41.413  75.846  -7.475  0.00  0.00    +0.000 C 
ATOM     23  C12 UNL     1      40.405  75.991  -8.631  0.00  0.00    +0.002 C 
ATOM     24  C13 UNL     1      40.672  75.053  -9.823  0.00  0.00    +0.024 C 
ENDBRANCH   9  18
ENDBRANCH   4   7
BRANCH   1  26
ATOM     25  C1  UNL     1      41.912  66.448 -11.630  0.00  0.00    +0.253 C 
ATOM     26  O1  UNL     1      40.841  67.257 -12.109  0.00  0.00    -0.468 OA
ENDBRANCH   1  26
BRANCH   6  27
ATOM     27  O3  UNL     1      39.724  69.073 -10.387  0.00  0.00    -0.472 OA
BRANCH  27  28
ATOM     28  C23 UNL     1      39.402  69.860  -9.242  0.00  0.00    +0.206 C 
BRANCH  28  29
ATOM     29  C24 UNL     1      37.907  69.758  -8.939  0.00  0.00    +0.051 C 
BRANCH  29  30
ATOM     30  C25 UNL     1      37.462  70.868  -7.976  0.00  0.00    +0.051 C 
BRANCH  30  31
ATOM     31  C26 UNL     1      38.575  71.902  -7.765  0.00  0.00    +0.206 C 
BRANCH  31  32
ATOM     32  O4  UNL     1      38.043  73.109  -7.213  0.00  0.00    -0.475 OA
BRANCH  32  33
ATOM     33  C27 UNL     1      38.621  73.847  -6.165  0.00  0.00    +0.139 A 
ATOM     34  C28 UNL     1      38.116  75.090  -5.732  0.00  0.00    +0.037 A 
ATOM     35  C29 UNL     1      38.753  75.793  -4.706  0.00  0.00    +0.006 A 
ATOM     36  C30 UNL     1      39.894  75.263  -4.081  0.00  0.00    +0.040 A 
ATOM     37  C32 UNL     1      40.386  74.018  -4.505  0.00  0.00    +0.006 A 
ATOM     38  C33 UNL     1      39.755  73.319  -5.536  0.00  0.00    +0.037 A 
BRANCH  36  39
ATOM     39  C31 UNL     1      40.565  76.005  -2.992  0.00  0.00    +0.208 A 
ATOM     40  N3  UNL     1      39.942  76.559  -1.931  0.00  0.00    -0.106 NA
ATOM     41  N4  UNL     1      40.894  77.130  -1.213  0.00  0.00    -0.021 NA
ATOM     42  N5  UNL     1      42.064  76.938  -1.795  0.00  0.00    -0.021 NA
ATOM     43  N6  UNL     1      41.893  76.242  -2.906  0.00  0.00    -0.106 NA
ENDBRANCH  36  39
ENDBRANCH  32  33
ENDBRANCH  31  32
ENDBRANCH  30  31
ENDBRANCH  29  30
ENDBRANCH  28  29
ENDBRANCH  27  28
ENDBRANCH   6  27
TORSDOF 11
ENDMDL
MODEL 2
REMARK VINA RESULT:      -6.3      3.327      9.037
REMARK  Name = ./data/4u7t_site_bc02/pdb/l1c2.pdb
REMARK  11 active torsions:
REMARK  status: ('A' for Active; 'I' for Inactive)
REMARK    1  A    between atoms: O1_2  and  C2_3
REMARK    2  A    between atoms: C5_6  and  C6_7
REMARK    3  A    between atoms: N2_9  and  C7_10
REMARK    4  A    between atoms: C22_26  and  O3_27
REMARK    5  A    between atoms: O3_27  and  C23_28
REMARK    6  A    between atoms: C23_28  and  C24_29
REMARK    7  A    between atoms: C24_29  and  C25_30
REMARK    8  A    between atoms: C25_30  and  C26_31
REMARK    9  A    between atoms: C26_31  and  O4_32
REMARK   10  A    between atoms: O4_32  and  C27_33
REMARK   11  A    between atoms: C30_36  and  C31_37
REMARK                            x       y       z     vdW  Elec       q    Type
REMARK                         _______ _______ _______ _____ _____    ______ ____
ROOT
ATOM      1  C2  UNL     1      41.123  76.638  -3.002  0.00  0.00    +0.172 A 
ATOM      2  C3  UNL     1      42.501  76.462  -2.768  0.00  0.00    +0.040 A 
ATOM      3  C4  UNL     1      43.349  76.057  -3.801  0.00  0.00    +0.005 A 
ATOM      4  C5  UNL     1      42.838  75.837  -5.087  0.00  0.00    +0.018 A 
ATOM      5  C21 UNL     1      41.460  75.974  -5.314  0.00  0.00    +0.041 A 
ATOM      6  C22 UNL     1      40.599  76.392  -4.281  0.00  0.00    +0.172 A 
ENDROOT
BRANCH   4   7
ATOM      7  C6  UNL     1      43.715  75.444  -6.205  0.00  0.00    +0.079 C 
ATOM      8  N1  UNL     1      43.224  75.500  -7.409  0.00  0.00    -0.172 NA
ATOM      9  N2  UNL     1      44.006  75.353  -8.580  0.00  0.00    -0.222 N 
ATOM     10  C14 UNL     1      45.239  74.894  -8.500  0.00  0.00    +0.253 C 
ATOM     11  O2  UNL     1      46.040  74.768  -9.637  0.00  0.00    -0.271 OA
ATOM     12  C15 UNL     1      45.795  74.464  -7.164  0.00  0.00    +0.091 C 
ATOM     13  C16 UNL     1      45.457  72.981  -6.913  0.00  0.00    +0.035 C 
ATOM     14  C17 UNL     1      45.645  72.562  -5.480  0.00  0.00    -0.030 C 
ATOM     15  C18 UNL     1      45.668  73.437  -4.466  0.00  0.00    -0.030 C 
ATOM     16  C19 UNL     1      45.754  74.924  -4.680  0.00  0.00    +0.032 C 
ATOM     17  C20 UNL     1      45.225  75.369  -6.059  0.00  0.00    +0.056 C 
BRANCH   9  18
ATOM     18  C7  UNL     1      43.395  75.817  -9.843  0.00  0.00    +0.108 C 
ATOM     19  C8  UNL     1      42.062  76.554  -9.588  0.00  0.00    +0.024 C 
ATOM     20  C9  UNL     1      41.422  77.129 -10.864  0.00  0.00    +0.002 C 
ATOM     21  C10 UNL     1      40.760  76.038 -11.724  0.00  0.00    +0.000 C 
ATOM     22  C11 UNL     1      41.694  75.378 -12.758  0.00  0.00    +0.000 C 
ATOM     23  C12 UNL     1      43.151  75.154 -12.312  0.00  0.00    +0.002 C 
ATOM     24  C13 UNL     1      43.299  74.656 -10.862  0.00  0.00    +0.024 C 
ENDBRANCH   9  18
ENDBRANCH   4   7
BRANCH   1  26
ATOM     25  C1  UNL     1      39.478  76.191  -1.169  0.00  0.00    +0.253 C 
ATOM     26  O1  UNL     1      40.244  77.065  -1.993  0.00  0.00    -0.468 OA
ENDBRANCH   1  26
BRANCH   6  27
ATOM     27  O3  UNL     1      39.223  76.590  -4.491  0.00  0.00    -0.472 OA
BRANCH  27  28
ATOM     28  C23 UNL     1      38.323  75.601  -4.988  0.00  0.00    +0.206 C 
BRANCH  28  29
ATOM     29  C24 UNL     1      38.966  74.217  -4.903  0.00  0.00    +0.051 C 
BRANCH  29  30
ATOM     30  C25 UNL     1      38.685  73.398  -6.171  0.00  0.00    +0.051 C 
BRANCH  30  31
ATOM     31  C26 UNL     1      39.925  73.322  -7.070  0.00  0.00    +0.206 C 
BRANCH  31  32
ATOM     32  O4  UNL     1      39.545  73.190  -8.441  0.00  0.00    -0.475 OA
BRANCH  32  33
ATOM     33  C27 UNL     1      39.707  72.031  -9.222  0.00  0.00    +0.139 A 
ATOM     34  C28 UNL     1      39.312  70.750  -8.786  0.00  0.00    +0.037 A 
ATOM     35  C29 UNL     1      39.529  69.630  -9.593  0.00  0.00    +0.006 A 
ATOM     36  C30 UNL     1      40.127  69.768 -10.856  0.00  0.00    +0.040 A 
ATOM     37  C32 UNL     1      40.506  71.047 -11.295  0.00  0.00    +0.006 A 
ATOM     38  C33 UNL     1      40.298  72.166 -10.484  0.00  0.00    +0.037 A 
BRANCH  36  39
ATOM     39  C31 UNL     1      40.352  68.583 -11.713  0.00  0.00    +0.208 A 
ATOM     40  N3  UNL     1      41.335  67.676 -11.540  0.00  0.00    -0.106 NA
ATOM     41  N4  UNL     1      41.188  66.797 -12.516  0.00  0.00    -0.021 NA
ATOM     42  N5  UNL     1      40.155  67.135 -13.266  0.00  0.00    -0.021 NA
ATOM     43  N6  UNL     1      39.612  68.244 -12.792  0.00  0.00    -0.106 NA
ENDBRANCH  36  39
ENDBRANCH  32  33
ENDBRANCH  31  32
ENDBRANCH  30  31
ENDBRANCH  29  30
ENDBRANCH  28  29
ENDBRANCH  27  28
ENDBRANCH   6  27
TORSDOF 11
ENDMDL
MODEL 3
REMARK VINA RESULT:      -5.6      3.009      8.616
REMARK  Name = ./data/4u7t_site_bc02/pdb/l1c2.pdb
REMARK  11 active torsions:
REMARK  status: ('A' for Active; 'I' for Inactive)
REMARK    1  A    between atoms: O1_2  and  C2_3
REMARK    2  A    between atoms: C5_6  and  C6_7
REMARK    3  A    between atoms: N2_9  and  C7_10
REMARK    4  A    between atoms: C22_26  and  O3_27
REMARK    5  A    between atoms: O3_27  and  C23_28
REMARK    6  A    between atoms: C23_28  and  C24_29
REMARK    7  A    between atoms: C24_29  and  C25_30
REMARK    8  A    between atoms: C25_30  and  C26_31
REMARK    9  A    between atoms: C26_31  and  O4_32
REMARK   10  A    between atoms: O4_32  and  C27_33
REMARK   11  A    between atoms: C30_36  and  C31_37
REMARK                            x       y       z     vdW  Elec       q    Type
REMARK                         _______ _______ _______ _____ _____    ______ ____
ROOT
ATOM      1  C2  UNL     1      40.267  75.793  -4.759  0.00  0.00    +0.172 A 
ATOM      2  C3  UNL     1      40.907  77.010  -5.066  0.00  0.00    +0.040 A 
ATOM      3  C4  UNL     1      41.944  77.049  -6.000  0.00  0.00    +0.005 A 
ATOM      4  C5  UNL     1      42.349  75.878  -6.654  0.00  0.00    +0.018 A 
ATOM      5  C21 UNL     1      41.740  74.658  -6.322  0.00  0.00    +0.041 A 
ATOM      6  C22 UNL     1      40.687  74.610  -5.389  0.00  0.00    +0.172 A 
ENDROOT
BRANCH   4   7
ATOM      7  C6  UNL     1      43.417  75.895  -7.670  0.00  0.00    +0.079 C 
ATOM      8  N1  UNL     1      43.080  75.664  -8.907  0.00  0.00    -0.172 NA
ATOM      9  N2  UNL     1      43.956  75.852 -10.002  0.00  0.00    -0.222 N 
ATOM     10  C14 UNL     1      45.246  76.027  -9.798  0.00  0.00    +0.253 C 
ATOM     11  O2  UNL     1      46.126  76.243 -10.860  0.00  0.00    -0.271 OA
ATOM     12  C15 UNL     1      45.800  75.963  -8.395  0.00  0.00    +0.091 C 
ATOM     13  C16 UNL     1      46.161  74.506  -8.044  0.00  0.00    +0.035 C 
ATOM     14  C17 UNL     1      46.375  74.284  -6.572  0.00  0.00    -0.030 C 
ATOM     15  C18 UNL     1      45.888  75.109  -5.635  0.00  0.00    -0.030 C 
ATOM     16  C19 UNL     1      45.298  76.453  -5.967  0.00  0.00    +0.032 C 
ATOM     17  C20 UNL     1      44.766  76.541  -7.412  0.00  0.00    +0.056 C 
BRANCH   9  18
ATOM     18  C7  UNL     1      43.332  75.923 -11.340  0.00  0.00    +0.108 C 
ATOM     19  C8  UNL     1      42.184  76.956 -11.373  0.00  0.00    +0.024 C 
ATOM     20  C9  UNL     1      41.551  77.130 -12.765  0.00  0.00    +0.002 C 
ATOM     21  C10 UNL     1      40.627  75.955 -13.133  0.00  0.00    +0.000 C 
ATOM     22  C11 UNL     1      41.330  74.781 -13.844  0.00  0.00    +0.000 C 
ATOM     23  C12 UNL     1      42.755  74.449 -13.363  0.00  0.00    +0.002 C 
ATOM     24  C13 UNL     1      42.935  74.511 -11.835  0.00  0.00    +0.024 C 
ENDBRANCH   9  18
ENDBRANCH   4   7
BRANCH   1  26
ATOM     25  C1  UNL     1      38.996  76.644  -2.778  0.00  0.00    +0.253 C 
ATOM     26  O1  UNL     1      39.206  75.719  -3.842  0.00  0.00    -0.468 OA
ENDBRANCH   1  26
BRANCH   6  27
ATOM     27  O3  UNL     1      40.020  73.412  -5.076  0.00  0.00    -0.472 OA
BRANCH  27  28
ATOM     28  C23 UNL     1      38.844  72.938  -5.729  0.00  0.00    +0.206 C 
BRANCH  28  29
ATOM     29  C24 UNL     1      39.221  72.156  -6.987  0.00  0.00    +0.051 C 
BRANCH  29  30
ATOM     30  C25 UNL     1      38.007  71.974  -7.910  0.00  0.00    +0.051 C 
BRANCH  30  31
ATOM     31  C26 UNL     1      37.928  70.540  -8.448  0.00  0.00    +0.206 C 
BRANCH  31  32
ATOM     32  O4  UNL     1      39.227  70.066  -8.811  0.00  0.00    -0.475 OA
BRANCH  32  33
ATOM     33  C27 UNL     1      39.846  70.265 -10.058  0.00  0.00    +0.139 A 
ATOM     34  C28 UNL     1      39.966  71.534 -10.661  0.00  0.00    +0.037 A 
ATOM     35  C29 UNL     1      40.563  71.665 -11.918  0.00  0.00    +0.006 A 
ATOM     36  C30 UNL     1      41.067  70.539 -12.588  0.00  0.00    +0.040 A 
ATOM     37  C32 UNL     1      40.959  69.278 -11.978  0.00  0.00    +0.006 A 
ATOM     38  C33 UNL     1      40.355  69.145 -10.726  0.00  0.00    +0.037 A 
BRANCH  36  39
ATOM     39  C31 UNL     1      41.703  70.678 -13.916  0.00  0.00    +0.208 A 
ATOM     40  N3  UNL     1      41.370  71.601 -14.843  0.00  0.00    -0.106 NA
ATOM     41  N4  UNL     1      42.163  71.374 -15.876  0.00  0.00    -0.021 NA
ATOM     42  N5  UNL     1      42.962  70.357 -15.607  0.00  0.00    -0.021 NA
ATOM     43  N6  UNL     1      42.700  69.901 -14.394  0.00  0.00    -0.106 NA
ENDBRANCH  36  39
ENDBRANCH  32  33
ENDBRANCH  31  32
ENDBRANCH  30  31
ENDBRANCH  29  30
ENDBRANCH  28  29
ENDBRANCH  27  28
ENDBRANCH   6  27
TORSDOF 11
ENDMDL
MODEL 4
REMARK VINA RESULT:      -5.5      2.157      3.186
REMARK  Name = ./data/4u7t_site_bc02/pdb/l1c2.pdb
REMARK  11 active torsions:
REMARK  status: ('A' for Active; 'I' for Inactive)
REMARK    1  A    between atoms: O1_2  and  C2_3
REMARK    2  A    between atoms: C5_6  and  C6_7
REMARK    3  A    between atoms: N2_9  and  C7_10
REMARK    4  A    between atoms: C22_26  and  O3_27
REMARK    5  A    between atoms: O3_27  and  C23_28
REMARK    6  A    between atoms: C23_28  and  C24_29
REMARK    7  A    between atoms: C24_29  and  C25_30
REMARK    8  A    between atoms: C25_30  and  C26_31
REMARK    9  A    between atoms: C26_31  and  O4_32
REMARK   10  A    between atoms: O4_32  and  C27_33
REMARK   11  A    between atoms: C30_36  and  C31_37
REMARK                            x       y       z     vdW  Elec       q    Type
REMARK                         _______ _______ _______ _____ _____    ______ ____
ROOT
ATOM      1  C2  UNL     1      39.574  70.272 -11.519  0.00  0.00    +0.172 A 
ATOM      2  C3  UNL     1      40.296  70.601 -12.683  0.00  0.00    +0.040 A 
ATOM      3  C4  UNL     1      41.113  71.732 -12.713  0.00  0.00    +0.005 A 
ATOM      4  C5  UNL     1      41.237  72.543 -11.577  0.00  0.00    +0.018 A 
ATOM      5  C21 UNL     1      40.490  72.239 -10.429  0.00  0.00    +0.041 A 
ATOM      6  C22 UNL     1      39.670  71.095 -10.385  0.00  0.00    +0.172 A 
ENDROOT
BRANCH   4   7
ATOM      7  C6  UNL     1      42.121  73.723 -11.568  0.00  0.00    +0.079 C 
ATOM      8  N1  UNL     1      42.661  74.067 -10.434  0.00  0.00    -0.172 NA
ATOM      9  N2  UNL     1      43.681  75.041 -10.318  0.00  0.00    -0.222 N 
ATOM     10  C14 UNL     1      43.957  75.836 -11.332  0.00  0.00    +0.253 C 
ATOM     11  O2  UNL     1      44.978  76.785 -11.253  0.00  0.00    -0.271 OA
ATOM     12  C15 UNL     1      43.139  75.750 -12.599  0.00  0.00    +0.091 C 
ATOM     13  C16 UNL     1      41.911  76.674 -12.488  0.00  0.00    +0.035 C 
ATOM     14  C17 UNL     1      40.859  76.392 -13.527  0.00  0.00    -0.030 C 
ATOM     15  C18 UNL     1      40.776  75.223 -14.177  0.00  0.00    -0.030 C 
ATOM     16  C19 UNL     1      41.860  74.181 -14.113  0.00  0.00    +0.032 C 
ATOM     17  C20 UNL     1      42.727  74.288 -12.841  0.00  0.00    +0.056 C 
BRANCH   9  18
ATOM     18  C7  UNL     1      44.447  75.046  -9.055  0.00  0.00    +0.108 C 
ATOM     19  C8  UNL     1      44.703  73.611  -8.544  0.00  0.00    +0.024 C 
ATOM     20  C9  UNL     1      45.567  73.554  -7.272  0.00  0.00    +0.002 C 
ATOM     21  C10 UNL     1      44.777  73.958  -6.015  0.00  0.00    +0.000 C 
ATOM     22  C11 UNL     1      44.802  75.466  -5.696  0.00  0.00    +0.000 C 
ATOM     23  C12 UNL     1      44.760  76.419  -6.906  0.00  0.00    +0.002 C 
ATOM     24  C13 UNL     1      43.785  75.985  -8.017  0.00  0.00    +0.024 C 
ENDBRANCH   9  18
ENDBRANCH   4   7
BRANCH   1  26
ATOM     25  C1  UNL     1      37.334  69.156 -11.449  0.00  0.00    +0.253 C 
ATOM     26  O1  UNL     1      38.759  69.130 -11.445  0.00  0.00    -0.468 OA
ENDBRANCH   1  26
BRANCH   6  27
ATOM     27  O3  UNL     1      38.952  70.734  -9.232  0.00  0.00    -0.472 OA
BRANCH  27  28
ATOM     28  C23 UNL     1      39.256  71.177  -7.910  0.00  0.00    +0.206 C 
BRANCH  28  29
ATOM     29  C24 UNL     1      38.615  72.541  -7.654  0.00  0.00    +0.051 C 
BRANCH  29  30
ATOM     30  C25 UNL     1      39.121  73.152  -6.339  0.00  0.00    +0.051 C 
BRANCH  30  31
ATOM     31  C26 UNL     1      38.654  74.604  -6.184  0.00  0.00    +0.206 C 
BRANCH  31  32
ATOM     32  O4  UNL     1      38.794  75.036  -4.829  0.00  0.00    -0.475 OA
BRANCH  32  33
ATOM     33  C27 UNL     1      40.014  75.304  -4.183  0.00  0.00    +0.139 A 
ATOM     34  C28 UNL     1      40.898  76.319  -4.603  0.00  0.00    +0.037 A 
ATOM     35  C29 UNL     1      42.113  76.516  -3.939  0.00  0.00    +0.006 A 
ATOM     36  C30 UNL     1      42.460  75.719  -2.837  0.00  0.00    +0.040 A 
ATOM     37  C32 UNL     1      41.570  74.719  -2.412  0.00  0.00    +0.006 A 
ATOM     38  C33 UNL     1      40.360  74.515  -3.079  0.00  0.00    +0.037 A 
BRANCH  36  39
ATOM     39  C31 UNL     1      43.743  75.932  -2.132  0.00  0.00    +0.208 A 
ATOM     40  N3  UNL     1      44.595  74.954  -1.758  0.00  0.00    -0.106 NA
ATOM     41  N4  UNL     1      45.600  75.565  -1.155  0.00  0.00    -0.021 NA
ATOM     42  N5  UNL     1      45.391  76.869  -1.155  0.00  0.00    -0.021 NA
ATOM     43  N6  UNL     1      44.242  77.130  -1.756  0.00  0.00    -0.106 NA
ENDBRANCH  36  39
ENDBRANCH  32  33
ENDBRANCH  31  32
ENDBRANCH  30  31
ENDBRANCH  29  30
ENDBRANCH  28  29
ENDBRANCH  27  28
ENDBRANCH   6  27
TORSDOF 11
ENDMDL
MODEL 5
REMARK VINA RESULT:      -5.5      3.634      6.548
REMARK  Name = ./data/4u7t_site_bc02/pdb/l1c2.pdb
REMARK  11 active torsions:
REMARK  status: ('A' for Active; 'I' for Inactive)
REMARK    1  A    between atoms: O1_2  and  C2_3
REMARK    2  A    between atoms: C5_6  and  C6_7
REMARK    3  A    between atoms: N2_9  and  C7_10
REMARK    4  A    between atoms: C22_26  and  O3_27
REMARK    5  A    between atoms: O3_27  and  C23_28
REMARK    6  A    between atoms: C23_28  and  C24_29
REMARK    7  A    between atoms: C24_29  and  C25_30
REMARK    8  A    between atoms: C25_30  and  C26_31
REMARK    9  A    between atoms: C26_31  and  O4_32
REMARK   10  A    between atoms: O4_32  and  C27_33
REMARK   11  A    between atoms: C30_36  and  C31_37
REMARK                            x       y       z     vdW  Elec       q    Type
REMARK                         _______ _______ _______ _____ _____    ______ ____
ROOT
ATOM      1  C2  UNL     1      37.152  69.746  -8.486  0.00  0.00    +0.172 A 
ATOM      2  C3  UNL     1      37.128  68.812  -9.541  0.00  0.00    +0.040 A 
ATOM      3  C4  UNL     1      37.997  68.945 -10.625  0.00  0.00    +0.005 A 
ATOM      4  C5  UNL     1      38.916  70.001 -10.666  0.00  0.00    +0.018 A 
ATOM      5  C21 UNL     1      38.918  70.955  -9.636  0.00  0.00    +0.041 A 
ATOM      6  C22 UNL     1      38.052  70.824  -8.534  0.00  0.00    +0.172 A 
ENDROOT
BRANCH   4   7
ATOM      7  C6  UNL     1      39.872  70.146 -11.780  0.00  0.00    +0.079 C 
ATOM      8  N1  UNL     1      39.613  71.043 -12.688  0.00  0.00    -0.172 NA
ATOM      9  N2  UNL     1      40.536  71.429 -13.689  0.00  0.00    -0.222 N 
ATOM     10  C14 UNL     1      41.617  70.708 -13.908  0.00  0.00    +0.253 C 
ATOM     11  O2  UNL     1      42.557  71.084 -14.870  0.00  0.00    -0.271 OA
ATOM     12  C15 UNL     1      41.840  69.433 -13.132  0.00  0.00    +0.091 C 
ATOM     13  C16 UNL     1      41.168  68.255 -13.864  0.00  0.00    +0.035 C 
ATOM     14  C17 UNL     1      41.022  67.026 -13.007  0.00  0.00    -0.030 C 
ATOM     15  C18 UNL     1      41.050  67.069 -11.668  0.00  0.00    -0.030 C 
ATOM     16  C19 UNL     1      41.472  68.295 -10.905  0.00  0.00    +0.032 C 
ATOM     17  C20 UNL     1      41.287  69.600 -11.706  0.00  0.00    +0.056 C 
BRANCH   9  18
ATOM     18  C7  UNL     1      40.256  72.701 -14.388  0.00  0.00    +0.108 C 
ATOM     19  C8  UNL     1      40.273  72.517 -15.922  0.00  0.00    +0.024 C 
ATOM     20  C9  UNL     1      39.908  73.793 -16.699  0.00  0.00    +0.002 C 
ATOM     21  C10 UNL     1      41.061  74.812 -16.717  0.00  0.00    +0.000 C 
ATOM     22  C11 UNL     1      41.066  75.801 -15.535  0.00  0.00    +0.000 C 
ATOM     23  C12 UNL     1      40.633  75.232 -14.171  0.00  0.00    +0.002 C 
ATOM     24  C13 UNL     1      41.184  73.826 -13.869  0.00  0.00    +0.024 C 
ENDBRANCH   9  18
ENDBRANCH   4   7
BRANCH   1  26
ATOM     25  C1  UNL     1      34.921  69.313  -7.438  0.00  0.00    +0.253 C 
ATOM     26  O1  UNL     1      36.308  69.633  -7.369  0.00  0.00    -0.468 OA
ENDBRANCH   1  26
BRANCH   6  27
ATOM     27  O3  UNL     1      38.066  71.732  -7.461  0.00  0.00    -0.472 OA
BRANCH  27  28
ATOM     28  C23 UNL     1      39.053  72.743  -7.262  0.00  0.00    +0.206 C 
BRANCH  28  29
ATOM     29  C24 UNL     1      38.884  73.377  -5.882  0.00  0.00    +0.051 C 
BRANCH  29  30
ATOM     30  C25 UNL     1      38.714  74.899  -5.989  0.00  0.00    +0.051 C 
BRANCH  30  31
ATOM     31  C26 UNL     1      40.070  75.602  -6.129  0.00  0.00    +0.206 C 
BRANCH  31  32
ATOM     32  O4  UNL     1      40.250  76.088  -7.461  0.00  0.00    -0.475 OA
BRANCH  32  33
ATOM     33  C27 UNL     1      41.290  75.711  -8.330  0.00  0.00    +0.139 A 
ATOM     34  C28 UNL     1      42.139  74.613  -8.080  0.00  0.00    +0.037 A 
ATOM     35  C29 UNL     1      43.177  74.307  -8.964  0.00  0.00    +0.006 A 
ATOM     36  C30 UNL     1      43.377  75.077 -10.121  0.00  0.00    +0.040 A 
ATOM     37  C32 UNL     1      42.520  76.161 -10.375  0.00  0.00    +0.006 A 
ATOM     38  C33 UNL     1      41.488  76.473  -9.487  0.00  0.00    +0.037 A 
BRANCH  36  39
ATOM     39  C31 UNL     1      44.472  74.750 -11.060  0.00  0.00    +0.208 A 
ATOM     40  N3  UNL     1      44.306  74.339 -12.334  0.00  0.00    -0.106 NA
ATOM     41  N4  UNL     1      45.523  74.146 -12.812  0.00  0.00    -0.021 NA
ATOM     42  N5  UNL     1      46.415  74.428 -11.879  0.00  0.00    -0.021 NA
ATOM     43  N6  UNL     1      45.792  74.807 -10.776  0.00  0.00    -0.106 NA
ENDBRANCH  36  39
ENDBRANCH  32  33
ENDBRANCH  31  32
ENDBRANCH  30  31
ENDBRANCH  29  30
ENDBRANCH  28  29
ENDBRANCH  27  28
ENDBRANCH   6  27
TORSDOF 11
ENDMDL
