MODEL 1
REMARK VINA RESULT:      -9.8      0.000      0.000
REMARK  Name = ./data/4u7t_site_bc02/pdb/l0c1.pdb
REMARK  11 active torsions:
REMARK  status: ('A' for Active; 'I' for Inactive)
REMARK    1  A    between atoms: O1_2  and  C2_3
REMARK    2  A    between atoms: C5_6  and  C6_7
REMARK    3  A    between atoms: N2_9  and  C7_10
REMARK    4  A    between atoms: C19_23  and  O3_24
REMARK    5  A    between atoms: O3_24  and  C20_25
REMARK    6  A    between atoms: C20_25  and  C21_26
REMARK    7  A    between atoms: C21_26  and  C22_27
REMARK    8  A    between atoms: C22_27  and  C23_28
REMARK    9  A    between atoms: C23_28  and  O4_29
REMARK   10  A    between atoms: O4_29  and  C24_30
REMARK   11  A    between atoms: C27_33  and  C28_34
REMARK                            x       y       z     vdW  Elec       q    Type
REMARK                         _______ _______ _______ _____ _____    ______ ____
ROOT
ATOM      1  C2  UNL     1      19.581  57.424  -2.552  0.00  0.00    +0.172 A 
ATOM      2  C3  UNL     1      19.266  56.215  -3.194  0.00  0.00    +0.040 A 
ATOM      3  C4  UNL     1      19.312  56.119  -4.587  0.00  0.00    +0.005 A 
ATOM      4  C5  UNL     1      19.667  57.229  -5.373  0.00  0.00    +0.019 A 
ATOM      5  C18 UNL     1      20.028  58.421  -4.724  0.00  0.00    +0.041 A 
ATOM      6  C19 UNL     1      19.973  58.531  -3.320  0.00  0.00    +0.172 A 
ENDROOT
BRANCH   4   7
ATOM      7  C6  UNL     1      19.596  57.138  -6.858  0.00  0.00    +0.086 C 
ATOM      8  N1  UNL     1      20.019  58.104  -7.612  0.00  0.00    -0.171 NA
ATOM      9  N2  UNL     1      20.050  57.688  -8.943  0.00  0.00    -0.222 N 
ATOM     10  C14 UNL     1      19.652  56.461  -9.034  0.00  0.00    +0.257 C 
ATOM     11  O2  UNL     1      19.595  55.766 -10.240  0.00  0.00    -0.270 OA
ATOM     12  C15 UNL     1      19.263  55.906  -7.694  0.00  0.00    +0.110 C 
ATOM     13  C16 UNL     1      17.761  55.567  -7.702  0.00  0.00    +0.015 C 
ATOM     14  C17 UNL     1      20.147  54.696  -7.335  0.00  0.00    +0.015 C 
BRANCH   9  15
ATOM     15  C7  UNL     1      20.474  58.531 -10.072  0.00  0.00    +0.108 C 
ATOM     16  C8  UNL     1      21.974  58.307 -10.413  0.00  0.00    +0.024 C 
ATOM     17  C9  UNL     1      22.276  58.524 -11.905  0.00  0.00    +0.002 C 
ATOM     18  C10 UNL     1      22.330  59.996 -12.325  0.00  0.00    +0.000 C 
ATOM     19  C11 UNL     1      21.019  60.755 -12.058  0.00  0.00    +0.000 C 
ATOM     20  C12 UNL     1      20.850  61.089 -10.569  0.00  0.00    +0.002 C 
ATOM     21  C13 UNL     1      20.101  60.008  -9.770  0.00  0.00    +0.024 C 
ENDBRANCH   9  15
ENDBRANCH   4   7
BRANCH   1  23
ATOM     22  C1  UNL     1      18.717  56.761  -0.299  0.00  0.00    +0.253 C 
ATOM     23  O1  UNL     1      19.517  57.568  -1.155  0.00  0.00    -0.468 OA
ENDBRANCH   1  23
BRANCH   6  24
ATOM     24  O3  UNL     1      20.296  59.726  -2.644  0.00  0.00    -0.472 OA
BRANCH  24  25
ATOM     25  C20 UNL     1      20.096  61.046  -3.155  0.00  0.00    +0.206 C 
BRANCH  25  26
ATOM     26  C21 UNL     1      21.427  61.808  -3.229  0.00  0.00    +0.051 C 
BRANCH  26  27
ATOM     27  C22 UNL     1      22.026  61.992  -1.829  0.00  0.00    +0.051 C 
BRANCH  27  28
ATOM     28  C23 UNL     1      21.953  63.453  -1.378  0.00  0.00    +0.206 C 
BRANCH  28  29
ATOM     29  O4  UNL     1      20.703  64.029  -1.756  0.00  0.00    -0.475 OA
BRANCH  29  30
ATOM     30  C24 UNL     1      20.537  65.190  -2.530  0.00  0.00    +0.139 A 
ATOM     31  C25 UNL     1      19.484  66.102  -2.330  0.00  0.00    +0.037 A 
ATOM     32  C26 UNL     1      19.388  67.255  -3.119  0.00  0.00    +0.006 A 
ATOM     33  C27 UNL     1      20.334  67.518  -4.128  0.00  0.00    +0.040 A 
ATOM     34  C29 UNL     1      21.374  66.591  -4.330  0.00  0.00    +0.006 A 
ATOM     35  C30 UNL     1      21.473  65.444  -3.537  0.00  0.00    +0.037 A 
BRANCH  33  36
ATOM     36  C28 UNL     1      20.246  68.755  -4.957  0.00  0.00    +0.208 A 
ATOM     37  N3  UNL     1      19.386  69.775  -4.747  0.00  0.00    -0.106 NA
ATOM     38  N4  UNL     1      19.633  70.657  -5.701  0.00  0.00    -0.021 NA
ATOM     39  N5  UNL     1      20.608  70.212  -6.476  0.00  0.00    -0.021 NA
ATOM     40  N6  UNL     1      21.008  69.029  -6.040  0.00  0.00    -0.106 NA
ENDBRANCH  33  36
ENDBRANCH  29  30
ENDBRANCH  28  29
ENDBRANCH  27  28
ENDBRANCH  26  27
ENDBRANCH  25  26
ENDBRANCH  24  25
ENDBRANCH   6  24
TORSDOF 11
ENDMDL
MODEL 2
REMARK VINA RESULT:      -8.5      5.786     11.157
REMARK  Name = ./data/4u7t_site_bc02/pdb/l0c1.pdb
REMARK  11 active torsions:
REMARK  status: ('A' for Active; 'I' for Inactive)
REMARK    1  A    between atoms: O1_2  and  C2_3
REMARK    2  A    between atoms: C5_6  and  C6_7
REMARK    3  A    between atoms: N2_9  and  C7_10
REMARK    4  A    between atoms: C19_23  and  O3_24
REMARK    5  A    between atoms: O3_24  and  C20_25
REMARK    6  A    between atoms: C20_25  and  C21_26
REMARK    7  A    between atoms: C21_26  and  C22_27
REMARK    8  A    between atoms: C22_27  and  C23_28
REMARK    9  A    between atoms: C23_28  and  O4_29
REMARK   10  A    between atoms: O4_29  and  C24_30
REMARK   11  A    between atoms: C27_33  and  C28_34
REMARK                            x       y       z     vdW  Elec       q    Type
REMARK                         _______ _______ _______ _____ _____    ______ ____
ROOT
ATOM      1  C2  UNL     1      20.684  60.663   2.097  0.00  0.00    +0.172 A 
ATOM      2  C3  UNL     1      20.372  60.707   3.466  0.00  0.00    +0.040 A 
ATOM      3  C4  UNL     1      19.634  59.679   4.057  0.00  0.00    +0.005 A 
ATOM      4  C5  UNL     1      19.184  58.586   3.296  0.00  0.00    +0.019 A 
ATOM      5  C18 UNL     1      19.541  58.524   1.939  0.00  0.00    +0.041 A 
ATOM      6  C19 UNL     1      20.275  59.561   1.331  0.00  0.00    +0.172 A 
ENDROOT
BRANCH   4   7
ATOM      7  C6  UNL     1      18.302  57.562   3.921  0.00  0.00    +0.086 C 
ATOM      8  N1  UNL     1      18.306  57.363   5.202  0.00  0.00    -0.171 NA
ATOM      9  N2  UNL     1      17.249  56.524   5.555  0.00  0.00    -0.222 N 
ATOM     10  C14 UNL     1      16.572  56.196   4.503  0.00  0.00    +0.257 C 
ATOM     11  O2  UNL     1      15.444  55.380   4.547  0.00  0.00    -0.270 OA
ATOM     12  C15 UNL     1      17.162  56.794   3.259  0.00  0.00    +0.110 C 
ATOM     13  C16 UNL     1      17.650  55.663   2.335  0.00  0.00    +0.015 C 
ATOM     14  C17 UNL     1      16.145  57.728   2.575  0.00  0.00    +0.015 C 
BRANCH   9  15
ATOM     15  C7  UNL     1      16.954  56.084   6.928  0.00  0.00    +0.108 C 
ATOM     16  C8  UNL     1      15.804  56.920   7.556  0.00  0.00    +0.024 C 
ATOM     17  C9  UNL     1      14.981  56.114   8.575  0.00  0.00    +0.002 C 
ATOM     18  C10 UNL     1      15.673  55.923   9.928  0.00  0.00    +0.000 C 
ATOM     19  C11 UNL     1      17.023  55.194   9.825  0.00  0.00    +0.000 C 
ATOM     20  C12 UNL     1      18.126  56.116   9.285  0.00  0.00    +0.002 C 
ATOM     21  C13 UNL     1      18.270  56.085   7.754  0.00  0.00    +0.024 C 
ENDBRANCH   9  15
ENDBRANCH   4   7
BRANCH   1  23
ATOM     22  C1  UNL     1      22.286  62.587   2.121  0.00  0.00    +0.253 C 
ATOM     23  O1  UNL     1      21.398  61.693   1.459  0.00  0.00    -0.468 OA
ENDBRANCH   1  23
BRANCH   6  24
ATOM     24  O3  UNL     1      20.616  59.542  -0.038  0.00  0.00    -0.472 OA
BRANCH  24  25
ATOM     25  C20 UNL     1      20.504  58.410  -0.903  0.00  0.00    +0.206 C 
BRANCH  25  26
ATOM     26  C21 UNL     1      20.975  58.761  -2.322  0.00  0.00    +0.051 C 
BRANCH  26  27
ATOM     27  C22 UNL     1      19.810  58.680  -3.316  0.00  0.00    +0.051 C 
BRANCH  27  28
ATOM     28  C23 UNL     1      20.185  59.294  -4.667  0.00  0.00    +0.206 C 
BRANCH  28  29
ATOM     29  O4  UNL     1      20.969  60.471  -4.478  0.00  0.00    -0.475 OA
BRANCH  29  30
ATOM     30  C24 UNL     1      20.481  61.721  -4.059  0.00  0.00    +0.139 A 
ATOM     31  C25 UNL     1      21.067  62.466  -3.019  0.00  0.00    +0.037 A 
ATOM     32  C26 UNL     1      20.549  63.718  -2.666  0.00  0.00    +0.006 A 
ATOM     33  C27 UNL     1      19.431  64.249  -3.338  0.00  0.00    +0.040 A 
ATOM     34  C29 UNL     1      18.843  63.490  -4.366  0.00  0.00    +0.006 A 
ATOM     35  C30 UNL     1      19.366  62.243  -4.722  0.00  0.00    +0.037 A 
BRANCH  33  36
ATOM     36  C28 UNL     1      18.889  65.592  -2.977  0.00  0.00    +0.208 A 
ATOM     37  N3  UNL     1      19.552  66.540  -2.283  0.00  0.00    -0.106 NA
ATOM     38  N4  UNL     1      18.718  67.562  -2.179  0.00  0.00    -0.021 NA
ATOM     39  N5  UNL     1      17.579  67.268  -2.785  0.00  0.00    -0.021 NA
ATOM     40  N6  UNL     1      17.654  66.047  -3.289  0.00  0.00    -0.106 NA
ENDBRANCH  33  36
ENDBRANCH  29  30
ENDBRANCH  28  29
ENDBRANCH  27  28
ENDBRANCH  26  27
ENDBRANCH  25  26
ENDBRANCH  24  25
ENDBRANCH   6  24
TORSDOF 11
ENDMDL
MODEL 3
REMARK VINA RESULT:      -8.3      5.284     11.910
REMARK  Name = ./data/4u7t_site_bc02/pdb/l0c1.pdb
REMARK  11 active torsions:
REMARK  status: ('A' for Active; 'I' for Inactive)
REMARK    1  A    between atoms: O1_2  and  C2_3
REMARK    2  A    between atoms: C5_6  and  C6_7
REMARK    3  A    between atoms: N2_9  and  C7_10
REMARK    4  A    between atoms: C19_23  and  O3_24
REMARK    5  A    between atoms: O3_24  and  C20_25
REMARK    6  A    between atoms: C20_25  and  C21_26
REMARK    7  A    between atoms: C21_26  and  C22_27
REMARK    8  A    between atoms: C22_27  and  C23_28
REMARK    9  A    between atoms: C23_28  and  O4_29
REMARK   10  A    between atoms: O4_29  and  C24_30
REMARK   11  A    between atoms: C27_33  and  C28_34
REMARK                            x       y       z     vdW  Elec       q    Type
REMARK                         _______ _______ _______ _____ _____    ______ ____
ROOT
ATOM      1  C2  UNL     1      21.054  61.001   1.322  0.00  0.00    +0.172 A 
ATOM      2  C3  UNL     1      20.765  60.994   2.696  0.00  0.00    +0.040 A 
ATOM      3  C4  UNL     1      20.039  59.943   3.262  0.00  0.00    +0.005 A 
ATOM      4  C5  UNL     1      19.579  58.878   2.469  0.00  0.00    +0.019 A 
ATOM      5  C18 UNL     1      19.913  58.866   1.105  0.00  0.00    +0.041 A 
ATOM      6  C19 UNL     1      20.634  59.927   0.523  0.00  0.00    +0.172 A 
ENDROOT
BRANCH   4   7
ATOM      7  C6  UNL     1      18.709  57.830   3.071  0.00  0.00    +0.086 C 
ATOM      8  N1  UNL     1      18.725  57.593   4.345  0.00  0.00    -0.171 NA
ATOM      9  N2  UNL     1      17.676  56.737   4.682  0.00  0.00    -0.222 N 
ATOM     10  C14 UNL     1      16.994  56.435   3.626  0.00  0.00    +0.257 C 
ATOM     11  O2  UNL     1      15.872  55.609   3.656  0.00  0.00    -0.270 OA
ATOM     12  C15 UNL     1      17.569  57.073   2.395  0.00  0.00    +0.110 C 
ATOM     13  C16 UNL     1      18.058  55.973   1.435  0.00  0.00    +0.015 C 
ATOM     14  C17 UNL     1      16.540  58.019   1.747  0.00  0.00    +0.015 C 
BRANCH   9  15
ATOM     15  C7  UNL     1      17.396  56.255   6.044  0.00  0.00    +0.108 C 
ATOM     16  C8  UNL     1      16.237  57.056   6.701  0.00  0.00    +0.024 C 
ATOM     17  C9  UNL     1      15.432  56.209   7.700  0.00  0.00    +0.002 C 
ATOM     18  C10 UNL     1      16.134  55.992   9.045  0.00  0.00    +0.000 C 
ATOM     19  C11 UNL     1      17.494  55.288   8.915  0.00  0.00    +0.000 C 
ATOM     20  C12 UNL     1      18.580  56.241   8.395  0.00  0.00    +0.002 C 
ATOM     21  C13 UNL     1      18.716  56.254   6.863  0.00  0.00    +0.024 C 
ENDBRANCH   9  15
ENDBRANCH   4   7
BRANCH   1  23
ATOM     22  C1  UNL     1      23.131  62.343   0.932  0.00  0.00    +0.253 C 
ATOM     23  O1  UNL     1      21.755  62.055   0.710  0.00  0.00    -0.468 OA
ENDBRANCH   1  23
BRANCH   6  24
ATOM     24  O3  UNL     1      20.952  59.958  -0.851  0.00  0.00    -0.472 OA
BRANCH  24  25
ATOM     25  C20 UNL     1      21.114  58.812  -1.690  0.00  0.00    +0.206 C 
BRANCH  25  26
ATOM     26  C21 UNL     1      20.310  58.970  -2.988  0.00  0.00    +0.051 C 
BRANCH  26  27
ATOM     27  C22 UNL     1      20.317  60.431  -3.457  0.00  0.00    +0.051 C 
BRANCH  27  28
ATOM     28  C23 UNL     1      19.346  60.649  -4.621  0.00  0.00    +0.206 C 
BRANCH  28  29
ATOM     29  O4  UNL     1      19.176  59.440  -5.359  0.00  0.00    -0.475 OA
BRANCH  29  30
ATOM     30  C24 UNL     1      19.782  59.141  -6.591  0.00  0.00    +0.139 A 
ATOM     31  C25 UNL     1      20.621  60.042  -7.274  0.00  0.00    +0.037 A 
ATOM     32  C26 UNL     1      21.216  59.674  -8.486  0.00  0.00    +0.006 A 
ATOM     33  C27 UNL     1      20.982  58.404  -9.047  0.00  0.00    +0.040 A 
ATOM     34  C29 UNL     1      20.129  57.517  -8.365  0.00  0.00    +0.006 A 
ATOM     35  C30 UNL     1      19.541  57.882  -7.150  0.00  0.00    +0.037 A 
BRANCH  33  36
ATOM     36  C28 UNL     1      21.630  58.002 -10.330  0.00  0.00    +0.208 A 
ATOM     37  N3  UNL     1      22.569  58.717 -10.987  0.00  0.00    -0.106 NA
ATOM     38  N4  UNL     1      22.867  58.014 -12.067  0.00  0.00    -0.021 NA
ATOM     39  N5  UNL     1      22.148  56.904 -12.086  0.00  0.00    -0.021 NA
ATOM     40  N6  UNL     1      21.367  56.869 -11.020  0.00  0.00    -0.106 NA
ENDBRANCH  33  36
ENDBRANCH  29  30
ENDBRANCH  28  29
ENDBRANCH  27  28
ENDBRANCH  26  27
ENDBRANCH  25  26
ENDBRANCH  24  25
ENDBRANCH   6  24
TORSDOF 11
ENDMDL
MODEL 4
REMARK VINA RESULT:      -8.2      4.824      9.695
REMARK  Name = ./data/4u7t_site_bc02/pdb/l0c1.pdb
REMARK  11 active torsions:
REMARK  status: ('A' for Active; 'I' for Inactive)
REMARK    1  A    between atoms: O1_2  and  C2_3
REMARK    2  A    between atoms: C5_6  and  C6_7
REMARK    3  A    between atoms: N2_9  and  C7_10
REMARK    4  A    between atoms: C19_23  and  O3_24
REMARK    5  A    between atoms: O3_24  and  C20_25
REMARK    6  A    between atoms: C20_25  and  C21_26
REMARK    7  A    between atoms: C21_26  and  C22_27
REMARK    8  A    between atoms: C22_27  and  C23_28
REMARK    9  A    between atoms: C23_28  and  O4_29
REMARK   10  A    between atoms: O4_29  and  C24_30
REMARK   11  A    between atoms: C27_33  and  C28_34
REMARK                            x       y       z     vdW  Elec       q    Type
REMARK                         _______ _______ _______ _____ _____    ______ ____
ROOT
ATOM      1  C2  UNL     1      19.051  55.885  -5.805  0.00  0.00    +0.172 A 
ATOM      2  C3  UNL     1      19.070  57.075  -6.550  0.00  0.00    +0.040 A 
ATOM      3  C4  UNL     1      19.405  58.287  -5.941  0.00  0.00    +0.005 A 
ATOM      4  C5  UNL     1      19.723  58.342  -4.573  0.00  0.00    +0.019 A 
ATOM      5  C18 UNL     1      19.749  57.142  -3.844  0.00  0.00    +0.041 A 
ATOM      6  C19 UNL     1      19.402  55.916  -4.446  0.00  0.00    +0.172 A 
ENDROOT
BRANCH   4   7
ATOM      7  C6  UNL     1      19.962  59.659  -3.921  0.00  0.00    +0.086 C 
ATOM      8  N1  UNL     1      20.394  59.736  -2.701  0.00  0.00    -0.171 NA
ATOM      9  N2  UNL     1      20.745  61.053  -2.404  0.00  0.00    -0.222 N 
ATOM     10  C14 UNL     1      20.541  61.809  -3.434  0.00  0.00    +0.257 C 
ATOM     11  O2  UNL     1      20.818  63.174  -3.442  0.00  0.00    -0.270 OA
ATOM     12  C15 UNL     1      19.969  61.033  -4.584  0.00  0.00    +0.110 C 
ATOM     13  C16 UNL     1      18.558  61.559  -4.901  0.00  0.00    +0.015 C 
ATOM     14  C17 UNL     1      20.917  61.092  -5.798  0.00  0.00    +0.015 C 
BRANCH   9  15
ATOM     15  C7  UNL     1      21.271  61.506  -1.107  0.00  0.00    +0.108 C 
ATOM     16  C8  UNL     1      22.825  61.481  -1.086  0.00  0.00    +0.024 C 
ATOM     17  C9  UNL     1      23.417  62.561  -0.164  0.00  0.00    +0.002 C 
ATOM     18  C10 UNL     1      23.323  62.229   1.328  0.00  0.00    +0.000 C 
ATOM     19  C11 UNL     1      21.880  62.021   1.818  0.00  0.00    +0.000 C 
ATOM     20  C12 UNL     1      21.326  60.656   1.384  0.00  0.00    +0.002 C 
ATOM     21  C13 UNL     1      20.603  60.680   0.027  0.00  0.00    +0.024 C 
ENDBRANCH   9  15
ENDBRANCH   4   7
BRANCH   1  23
ATOM     22  C1  UNL     1      17.350  54.245  -6.631  0.00  0.00    +0.253 C 
ATOM     23  O1  UNL     1      18.690  54.652  -6.374  0.00  0.00    -0.468 OA
ENDBRANCH   1  23
BRANCH   6  24
ATOM     24  O3  UNL     1      19.385  54.701  -3.730  0.00  0.00    -0.472 OA
BRANCH  24  25
ATOM     25  C20 UNL     1      18.294  54.219  -2.942  0.00  0.00    +0.206 C 
BRANCH  25  26
ATOM     26  C21 UNL     1      18.433  54.673  -1.482  0.00  0.00    +0.051 C 
BRANCH  26  27
ATOM     27  C22 UNL     1      17.153  55.371  -1.006  0.00  0.00    +0.051 C 
BRANCH  27  28
ATOM     28  C23 UNL     1      16.408  54.525   0.030  0.00  0.00    +0.206 C 
BRANCH  28  29
ATOM     29  O4  UNL     1      16.073  55.316   1.170  0.00  0.00    -0.475 OA
BRANCH  29  30
ATOM     30  C24 UNL     1      16.962  56.130   1.892  0.00  0.00    +0.139 A 
ATOM     31  C25 UNL     1      18.087  55.625   2.571  0.00  0.00    +0.037 A 
ATOM     32  C26 UNL     1      18.950  56.492   3.252  0.00  0.00    +0.006 A 
ATOM     33  C27 UNL     1      18.706  57.879   3.276  0.00  0.00    +0.040 A 
ATOM     34  C29 UNL     1      17.570  58.371   2.607  0.00  0.00    +0.006 A 
ATOM     35  C30 UNL     1      16.713  57.505   1.921  0.00  0.00    +0.037 A 
BRANCH  33  36
ATOM     36  C28 UNL     1      19.634  58.807   3.984  0.00  0.00    +0.208 A 
ATOM     37  N3  UNL     1      20.959  58.607   4.153  0.00  0.00    -0.106 NA
ATOM     38  N4  UNL     1      21.399  59.655   4.830  0.00  0.00    -0.021 NA
ATOM     39  N5  UNL     1      20.394  60.480   5.074  0.00  0.00    -0.021 NA
ATOM     40  N6  UNL     1      19.282  59.978   4.561  0.00  0.00    -0.106 NA
ENDBRANCH  33  36
ENDBRANCH  29  30
ENDBRANCH  28  29
ENDBRANCH  27  28
ENDBRANCH  26  27
ENDBRANCH  25  26
ENDBRANCH  24  25
ENDBRANCH   6  24
TORSDOF 11
ENDMDL
MODEL 5
REMARK VINA RESULT:      -8.1      2.915      9.035
REMARK  Name = ./data/4u7t_site_bc02/pdb/l0c1.pdb
REMARK  11 active torsions:
REMARK  status: ('A' for Active; 'I' for Inactive)
REMARK    1  A    between atoms: O1_2  and  C2_3
REMARK    2  A    between atoms: C5_6  and  C6_7
REMARK    3  A    between atoms: N2_9  and  C7_10
REMARK    4  A    between atoms: C19_23  and  O3_24
REMARK    5  A    between atoms: O3_24  and  C20_25
REMARK    6  A    between atoms: C20_25  and  C21_26
REMARK    7  A    between atoms: C21_26  and  C22_27
REMARK    8  A    between atoms: C22_27  and  C23_28
REMARK    9  A    between atoms: C23_28  and  O4_29
REMARK   10  A    between atoms: O4_29  and  C24_30
REMARK   11  A    between atoms: C27_33  and  C28_34
REMARK                            x       y       z     vdW  Elec       q    Type
REMARK                         _______ _______ _______ _____ _____    ______ ____
ROOT
ATOM      1  C2  UNL     1      18.109  57.902  -6.760  0.00  0.00    +0.172 A 
ATOM      2  C3  UNL     1      18.034  59.180  -7.336  0.00  0.00    +0.040 A 
ATOM      3  C4  UNL     1      18.585  60.285  -6.682  0.00  0.00    +0.005 A 
ATOM      4  C5  UNL     1      19.216  60.142  -5.434  0.00  0.00    +0.019 A 
ATOM      5  C18 UNL     1      19.330  58.854  -4.887  0.00  0.00    +0.041 A 
ATOM      6  C19 UNL     1      18.768  57.735  -5.533  0.00  0.00    +0.172 A 
ENDROOT
BRANCH   4   7
ATOM      7  C6  UNL     1      19.691  61.349  -4.702  0.00  0.00    +0.086 C 
ATOM      8  N1  UNL     1      19.143  62.508  -4.891  0.00  0.00    -0.171 NA
ATOM      9  N2  UNL     1      19.610  63.414  -3.939  0.00  0.00    -0.222 N 
ATOM     10  C14 UNL     1      20.449  62.831  -3.145  0.00  0.00    +0.257 C 
ATOM     11  O2  UNL     1      21.067  63.482  -2.080  0.00  0.00    -0.270 OA
ATOM     12  C15 UNL     1      20.663  61.395  -3.527  0.00  0.00    +0.110 C 
ATOM     13  C16 UNL     1      22.131  61.196  -3.947  0.00  0.00    +0.015 C 
ATOM     14  C17 UNL     1      20.238  60.462  -2.377  0.00  0.00    +0.015 C 
BRANCH   9  15
ATOM     15  C7  UNL     1      19.202  64.825  -3.858  0.00  0.00    +0.108 C 
ATOM     16  C8  UNL     1      20.374  65.727  -3.378  0.00  0.00    +0.024 C 
ATOM     17  C9  UNL     1      20.294  67.151  -3.954  0.00  0.00    +0.002 C 
ATOM     18  C10 UNL     1      19.244  68.040  -3.280  0.00  0.00    +0.000 C 
ATOM     19  C11 UNL     1      17.816  67.478  -3.377  0.00  0.00    +0.000 C 
ATOM     20  C12 UNL     1      17.596  66.315  -2.398  0.00  0.00    +0.002 C 
ATOM     21  C13 UNL     1      17.917  64.933  -2.992  0.00  0.00    +0.024 C 
ENDBRANCH   9  15
ENDBRANCH   4   7
BRANCH   1  23
ATOM     22  C1  UNL     1      17.653  56.463  -8.758  0.00  0.00    +0.253 C 
ATOM     23  O1  UNL     1      17.540  56.771  -7.373  0.00  0.00    -0.468 OA
ENDBRANCH   1  23
BRANCH   6  24
ATOM     24  O3  UNL     1      18.837  56.436  -4.988  0.00  0.00    -0.472 OA
BRANCH  24  25
ATOM     25  C20 UNL     1      19.894  55.937  -4.166  0.00  0.00    +0.206 C 
BRANCH  25  26
ATOM     26  C21 UNL     1      20.115  54.438  -4.414  0.00  0.00    +0.051 C 
BRANCH  26  27
ATOM     27  C22 UNL     1      20.114  54.130  -5.917  0.00  0.00    +0.051 C 
BRANCH  27  28
ATOM     28  C23 UNL     1      21.296  54.797  -6.625  0.00  0.00    +0.206 C 
BRANCH  28  29
ATOM     29  O4  UNL     1      21.057  54.871  -8.030  0.00  0.00    -0.475 OA
BRANCH  29  30
ATOM     30  C24 UNL     1      21.182  56.024  -8.823  0.00  0.00    +0.139 A 
ATOM     31  C25 UNL     1      21.207  55.991 -10.229  0.00  0.00    +0.037 A 
ATOM     32  C26 UNL     1      21.308  57.179 -10.963  0.00  0.00    +0.006 A 
ATOM     33  C27 UNL     1      21.393  58.424 -10.310  0.00  0.00    +0.040 A 
ATOM     34  C29 UNL     1      21.384  58.445  -8.903  0.00  0.00    +0.006 A 
ATOM     35  C30 UNL     1      21.276  57.258  -8.171  0.00  0.00    +0.037 A 
BRANCH  33  36
ATOM     36  C28 UNL     1      21.481  59.693 -11.089  0.00  0.00    +0.208 A 
ATOM     37  N3  UNL     1      22.018  59.816 -12.322  0.00  0.00    -0.106 NA
ATOM     38  N4  UNL     1      21.900  61.094 -12.642  0.00  0.00    -0.021 NA
ATOM     39  N5  UNL     1      21.312  61.746 -11.652  0.00  0.00    -0.021 NA
ATOM     40  N6  UNL     1      21.041  60.901 -10.671  0.00  0.00    -0.106 NA
ENDBRANCH  33  36
ENDBRANCH  29  30
ENDBRANCH  28  29
ENDBRANCH  27  28
ENDBRANCH  26  27
ENDBRANCH  25  26
ENDBRANCH  24  25
ENDBRANCH   6  24
TORSDOF 11
ENDMDL
MODEL 6
REMARK VINA RESULT:      -7.1      5.422     11.897
REMARK  Name = ./data/4u7t_site_bc02/pdb/l0c1.pdb
REMARK  11 active torsions:
REMARK  status: ('A' for Active; 'I' for Inactive)
REMARK    1  A    between atoms: O1_2  and  C2_3
REMARK    2  A    between atoms: C5_6  and  C6_7
REMARK    3  A    between atoms: N2_9  and  C7_10
REMARK    4  A    between atoms: C19_23  and  O3_24
REMARK    5  A    between atoms: O3_24  and  C20_25
REMARK    6  A    between atoms: C20_25  and  C21_26
REMARK    7  A    between atoms: C21_26  and  C22_27
REMARK    8  A    between atoms: C22_27  and  C23_28
REMARK    9  A    between atoms: C23_28  and  O4_29
REMARK   10  A    between atoms: O4_29  and  C24_30
REMARK   11  A    between atoms: C27_33  and  C28_34
REMARK                            x       y       z     vdW  Elec       q    Type
REMARK                         _______ _______ _______ _____ _____    ______ ____
ROOT
ATOM      1  C2  UNL     1      21.290  61.355   2.119  0.00  0.00    +0.172 A 
ATOM      2  C3  UNL     1      21.180  61.135   3.502  0.00  0.00    +0.040 A 
ATOM      3  C4  UNL     1      20.349  60.126   3.995  0.00  0.00    +0.005 A 
ATOM      4  C5  UNL     1      19.602  59.318   3.120  0.00  0.00    +0.019 A 
ATOM      5  C18 UNL     1      19.753  59.511   1.737  0.00  0.00    +0.041 A 
ATOM      6  C19 UNL     1      20.580  60.533   1.231  0.00  0.00    +0.172 A 
ENDROOT
BRANCH   4   7
ATOM      7  C6  UNL     1      18.635  58.328   3.671  0.00  0.00    +0.086 C 
ATOM      8  N1  UNL     1      18.137  58.465   4.860  0.00  0.00    -0.171 NA
ATOM      9  N2  UNL     1      17.105  57.547   5.051  0.00  0.00    -0.222 N 
ATOM     10  C14 UNL     1      16.944  56.832   3.985  0.00  0.00    +0.257 C 
ATOM     11  O2  UNL     1      15.970  55.842   3.872  0.00  0.00    -0.270 OA
ATOM     12  C15 UNL     1      17.933  57.202   2.918  0.00  0.00    +0.110 C 
ATOM     13  C16 UNL     1      18.850  55.998   2.636  0.00  0.00    +0.015 C 
ATOM     14  C17 UNL     1      17.203  57.705   1.658  0.00  0.00    +0.015 C 
BRANCH   9  15
ATOM     15  C7  UNL     1      16.319  57.418   6.288  0.00  0.00    +0.108 C 
ATOM     16  C8  UNL     1      16.431  55.987   6.884  0.00  0.00    +0.024 C 
ATOM     17  C9  UNL     1      16.306  55.978   8.416  0.00  0.00    +0.002 C 
ATOM     18  C10 UNL     1      14.873  56.152   8.928  0.00  0.00    +0.000 C 
ATOM     19  C11 UNL     1      14.218  57.466   8.473  0.00  0.00    +0.000 C 
ATOM     20  C12 UNL     1      13.784  57.404   7.001  0.00  0.00    +0.002 C 
ATOM     21  C13 UNL     1      14.862  57.884   6.014  0.00  0.00    +0.024 C 
ENDBRANCH   9  15
ENDBRANCH   4   7
BRANCH   1  23
ATOM     22  C1  UNL     1      23.515  62.388   1.620  0.00  0.00    +0.253 C 
ATOM     23  O1  UNL     1      22.092  62.380   1.587  0.00  0.00    -0.468 OA
ENDBRANCH   1  23
BRANCH   6  24
ATOM     24  O3  UNL     1      20.723  60.773  -0.152  0.00  0.00    -0.472 OA
BRANCH  24  25
ATOM     25  C20 UNL     1      21.862  60.420  -0.940  0.00  0.00    +0.206 C 
BRANCH  25  26
ATOM     26  C21 UNL     1      21.874  61.206  -2.259  0.00  0.00    +0.051 C 
BRANCH  26  27
ATOM     27  C22 UNL     1      20.639  62.109  -2.365  0.00  0.00    +0.051 C 
BRANCH  27  28
ATOM     28  C23 UNL     1      20.346  62.487  -3.820  0.00  0.00    +0.206 C 
BRANCH  28  29
ATOM     29  O4  UNL     1      19.430  61.558  -4.400  0.00  0.00    -0.475 OA
BRANCH  29  30
ATOM     30  C24 UNL     1      19.726  60.654  -5.434  0.00  0.00    +0.139 A 
ATOM     31  C25 UNL     1      20.606  60.956  -6.490  0.00  0.00    +0.037 A 
ATOM     32  C26 UNL     1      20.880  60.003  -7.478  0.00  0.00    +0.006 A 
ATOM     33  C27 UNL     1      20.275  58.731  -7.438  0.00  0.00    +0.040 A 
ATOM     34  C29 UNL     1      19.385  58.445  -6.387  0.00  0.00    +0.006 A 
ATOM     35  C30 UNL     1      19.118  59.396  -5.397  0.00  0.00    +0.037 A 
BRANCH  33  36
ATOM     36  C28 UNL     1      20.580  57.706  -8.478  0.00  0.00    +0.208 A 
ATOM     37  N3  UNL     1      21.298  56.580  -8.277  0.00  0.00    -0.106 NA
ATOM     38  N4  UNL     1      21.333  55.961  -9.446  0.00  0.00    -0.021 NA
ATOM     39  N5  UNL     1      20.664  56.667 -10.342  0.00  0.00    -0.021 NA
ATOM     40  N6  UNL     1      20.185  57.760  -9.770  0.00  0.00    -0.106 NA
ENDBRANCH  33  36
ENDBRANCH  29  30
ENDBRANCH  28  29
ENDBRANCH  27  28
ENDBRANCH  26  27
ENDBRANCH  25  26
ENDBRANCH  24  25
ENDBRANCH   6  24
TORSDOF 11
ENDMDL
