MODEL 1
REMARK VINA RESULT:      -4.4      0.000      0.000
REMARK  Name = ./data/4u7t_site_bc02/pdb/l1c1.pdb
REMARK  11 active torsions:
REMARK  status: ('A' for Active; 'I' for Inactive)
REMARK    1  A    between atoms: O1_2  and  C2_3
REMARK    2  A    between atoms: C5_6  and  C6_7
REMARK    3  A    between atoms: N2_9  and  C7_10
REMARK    4  A    between atoms: C22_26  and  O3_27
REMARK    5  A    between atoms: O3_27  and  C23_28
REMARK    6  A    between atoms: C23_28  and  C24_29
REMARK    7  A    between atoms: C24_29  and  C25_30
REMARK    8  A    between atoms: C25_30  and  C26_31
REMARK    9  A    between atoms: C26_31  and  O4_32
REMARK   10  A    between atoms: O4_32  and  C27_33
REMARK   11  A    between atoms: C30_36  and  C31_37
REMARK                            x       y       z     vdW  Elec       q    Type
REMARK                         _______ _______ _______ _____ _____    ______ ____
ROOT
ATOM      1  C2  UNL     1      17.367  83.084   6.702  0.00  0.00    +0.172 A 
ATOM      2  C3  UNL     1      16.203  83.811   6.399  0.00  0.00    +0.040 A 
ATOM      3  C4  UNL     1      15.002  83.150   6.136  0.00  0.00    +0.005 A 
ATOM      4  C5  UNL     1      14.927  81.746   6.182  0.00  0.00    +0.018 A 
ATOM      5  C21 UNL     1      16.095  81.024   6.503  0.00  0.00    +0.041 A 
ATOM      6  C22 UNL     1      17.315  81.684   6.746  0.00  0.00    +0.172 A 
ENDROOT
BRANCH   4   7
ATOM      7  C6  UNL     1      13.658  81.012   5.884  0.00  0.00    +0.079 C 
ATOM      8  N1  UNL     1      13.435  79.895   6.505  0.00  0.00    -0.172 NA
ATOM      9  N2  UNL     1      12.317  79.064   6.302  0.00  0.00    -0.222 N 
ATOM     10  C14 UNL     1      11.306  79.448   5.559  0.00  0.00    +0.253 C 
ATOM     11  O2  UNL     1      10.165  78.643   5.471  0.00  0.00    -0.271 OA
ATOM     12  C15 UNL     1      11.313  80.785   4.838  0.00  0.00    +0.091 C 
ATOM     13  C16 UNL     1      10.655  80.637   3.426  0.00  0.00    +0.035 C 
ATOM     14  C17 UNL     1      11.190  81.603   2.404  0.00  0.00    -0.030 C 
ATOM     15  C18 UNL     1      12.501  81.858   2.354  0.00  0.00    -0.030 C 
ATOM     16  C19 UNL     1      13.397  81.281   3.409  0.00  0.00    +0.032 C 
ATOM     17  C20 UNL     1      12.723  81.464   4.785  0.00  0.00    +0.056 C 
BRANCH   9  18
ATOM     18  C7  UNL     1      12.331  77.775   7.032  0.00  0.00    +0.108 C 
ATOM     19  C8  UNL     1      13.779  77.357   7.373  0.00  0.00    +0.024 C 
ATOM     20  C9  UNL     1      13.928  75.863   7.688  0.00  0.00    +0.002 C 
ATOM     21  C10 UNL     1      13.070  75.395   8.874  0.00  0.00    +0.000 C 
ATOM     22  C11 UNL     1      11.589  75.226   8.492  0.00  0.00    +0.000 C 
ATOM     23  C12 UNL     1      10.734  76.500   8.632  0.00  0.00    +0.002 C 
ATOM     24  C13 UNL     1      11.427  77.832   8.288  0.00  0.00    +0.024 C 
ENDBRANCH   9  18
ENDBRANCH   4   7
BRANCH   1  26
ATOM     25  C1  UNL     1      18.733  85.083   7.338  0.00  0.00    +0.253 C 
ATOM     26  O1  UNL     1      18.594  83.716   6.966  0.00  0.00    -0.468 OA
ENDBRANCH   1  26
BRANCH   6  27
ATOM     27  O3  UNL     1      18.499  80.984   7.025  0.00  0.00    -0.472 OA
BRANCH  27  28
ATOM     28  C23 UNL     1      18.994  80.717   8.336  0.00  0.00    +0.206 C 
BRANCH  28  29
ATOM     29  C24 UNL     1      19.376  79.241   8.464  0.00  0.00    +0.051 C 
BRANCH  29  30
ATOM     30  C25 UNL     1      20.755  78.968   7.846  0.00  0.00    +0.051 C 
BRANCH  30  31
ATOM     31  C26 UNL     1      21.886  79.328   8.808  0.00  0.00    +0.206 C 
BRANCH  31  32
ATOM     32  O4  UNL     1      22.570  80.494   8.355  0.00  0.00    -0.475 OA
BRANCH  32  33
ATOM     33  C27 UNL     1      22.100  81.335   7.334  0.00  0.00    +0.139 A 
ATOM     34  C28 UNL     1      22.414  82.707   7.283  0.00  0.00    +0.037 A 
ATOM     35  C29 UNL     1      21.927  83.504   6.244  0.00  0.00    +0.006 A 
ATOM     36  C30 UNL     1      21.122  82.951   5.230  0.00  0.00    +0.040 A 
ATOM     37  C32 UNL     1      20.811  81.580   5.289  0.00  0.00    +0.006 A 
ATOM     38  C33 UNL     1      21.293  80.785   6.334  0.00  0.00    +0.037 A 
BRANCH  36  39
ATOM     39  C31 UNL     1      20.618  83.800   4.118  0.00  0.00    +0.208 A 
ATOM     40  N3  UNL     1      20.850  83.583   2.804  0.00  0.00    -0.106 NA
ATOM     41  N4  UNL     1      20.217  84.551   2.162  0.00  0.00    -0.021 NA
ATOM     42  N5  UNL     1      19.616  85.341   3.034  0.00  0.00    -0.021 NA
ATOM     43  N6  UNL     1      19.845  84.901   4.260  0.00  0.00    -0.106 NA
ENDBRANCH  36  39
ENDBRANCH  32  33
ENDBRANCH  31  32
ENDBRANCH  30  31
ENDBRANCH  29  30
ENDBRANCH  28  29
ENDBRANCH  27  28
ENDBRANCH   6  27
TORSDOF 11
ENDMDL
MODEL 2
REMARK VINA RESULT:      -3.5      2.408      3.146
REMARK  Name = ./data/4u7t_site_bc02/pdb/l1c1.pdb
REMARK  11 active torsions:
REMARK  status: ('A' for Active; 'I' for Inactive)
REMARK    1  A    between atoms: O1_2  and  C2_3
REMARK    2  A    between atoms: C5_6  and  C6_7
REMARK    3  A    between atoms: N2_9  and  C7_10
REMARK    4  A    between atoms: C22_26  and  O3_27
REMARK    5  A    between atoms: O3_27  and  C23_28
REMARK    6  A    between atoms: C23_28  and  C24_29
REMARK    7  A    between atoms: C24_29  and  C25_30
REMARK    8  A    between atoms: C25_30  and  C26_31
REMARK    9  A    between atoms: C26_31  and  O4_32
REMARK   10  A    between atoms: O4_32  and  C27_33
REMARK   11  A    between atoms: C30_36  and  C31_37
REMARK                            x       y       z     vdW  Elec       q    Type
REMARK                         _______ _______ _______ _____ _____    ______ ____
ROOT
ATOM      1  C2  UNL     1      15.847  85.139   6.240  0.00  0.00    +0.172 A 
ATOM      2  C3  UNL     1      14.570  85.570   5.843  0.00  0.00    +0.040 A 
ATOM      3  C4  UNL     1      13.611  84.651   5.415  0.00  0.00    +0.005 A 
ATOM      4  C5  UNL     1      13.896  83.273   5.386  0.00  0.00    +0.018 A 
ATOM      5  C21 UNL     1      15.173  82.845   5.802  0.00  0.00    +0.041 A 
ATOM      6  C22 UNL     1      16.153  83.771   6.212  0.00  0.00    +0.172 A 
ENDROOT
BRANCH   4   7
ATOM      7  C6  UNL     1      12.894  82.269   4.913  0.00  0.00    +0.079 C 
ATOM      8  N1  UNL     1      12.866  81.109   5.494  0.00  0.00    -0.172 NA
ATOM      9  N2  UNL     1      12.020  80.042   5.136  0.00  0.00    -0.222 N 
ATOM     10  C14 UNL     1      11.055  80.200   4.260  0.00  0.00    +0.253 C 
ATOM     11  O2  UNL     1      10.165  79.150   4.013  0.00  0.00    -0.271 OA
ATOM     12  C15 UNL     1      10.835  81.526   3.551  0.00  0.00    +0.091 C 
ATOM     13  C16 UNL     1      10.427  81.275   2.061  0.00  0.00    +0.035 C 
ATOM     14  C17 UNL     1      10.846  82.378   1.126  0.00  0.00    -0.030 C 
ATOM     15  C18 UNL     1      12.051  82.940   1.259  0.00  0.00    -0.030 C 
ATOM     16  C19 UNL     1      12.910  82.556   2.427  0.00  0.00    +0.032 C 
ATOM     17  C20 UNL     1      12.033  82.523   3.696  0.00  0.00    +0.056 C 
BRANCH   9  18
ATOM     18  C7  UNL     1      12.247  78.769   5.857  0.00  0.00    +0.108 C 
ATOM     19  C8  UNL     1      13.759  78.477   5.985  0.00  0.00    +0.024 C 
ATOM     20  C9  UNL     1      14.076  77.004   6.276  0.00  0.00    +0.002 C 
ATOM     21  C10 UNL     1      13.441  76.483   7.575  0.00  0.00    +0.000 C 
ATOM     22  C11 UNL     1      11.940  76.186   7.411  0.00  0.00    +0.000 C 
ATOM     23  C12 UNL     1      11.010  77.387   7.672  0.00  0.00    +0.002 C 
ATOM     24  C13 UNL     1      11.531  78.767   7.231  0.00  0.00    +0.024 C 
ENDBRANCH   9  18
ENDBRANCH   4   7
BRANCH   1  26
ATOM     25  C1  UNL     1      16.819  86.723   7.917  0.00  0.00    +0.253 C 
ATOM     26  O1  UNL     1      16.838  86.036   6.670  0.00  0.00    -0.468 OA
ENDBRANCH   1  26
BRANCH   6  27
ATOM     27  O3  UNL     1      17.445  83.372   6.590  0.00  0.00    -0.472 OA
BRANCH  27  28
ATOM     28  C23 UNL     1      17.801  82.051   6.993  0.00  0.00    +0.206 C 
BRANCH  28  29
ATOM     29  C24 UNL     1      16.576  81.137   6.939  0.00  0.00    +0.051 C 
BRANCH  29  30
ATOM     30  C25 UNL     1      16.967  79.703   6.551  0.00  0.00    +0.051 C 
BRANCH  30  31
ATOM     31  C26 UNL     1      18.388  79.365   7.001  0.00  0.00    +0.206 C 
BRANCH  31  32
ATOM     32  O4  UNL     1      19.337  79.865   6.061  0.00  0.00    -0.475 OA
BRANCH  32  33
ATOM     33  C27 UNL     1      20.451  80.645   6.407  0.00  0.00    +0.139 A 
ATOM     34  C28 UNL     1      20.906  81.708   5.603  0.00  0.00    +0.037 A 
ATOM     35  C29 UNL     1      22.017  82.461   5.990  0.00  0.00    +0.006 A 
ATOM     36  C30 UNL     1      22.695  82.177   7.191  0.00  0.00    +0.040 A 
ATOM     37  C32 UNL     1      22.235  81.112   7.989  0.00  0.00    +0.006 A 
ATOM     38  C33 UNL     1      21.128  80.354   7.595  0.00  0.00    +0.037 A 
BRANCH  36  39
ATOM     39  C31 UNL     1      23.868  82.990   7.608  0.00  0.00    +0.208 A 
ATOM     40  N3  UNL     1      24.202  84.198   7.100  0.00  0.00    -0.106 NA
ATOM     41  N4  UNL     1      25.290  84.574   7.750  0.00  0.00    -0.021 NA
ATOM     42  N5  UNL     1      25.626  83.644   8.626  0.00  0.00    -0.021 NA
ATOM     43  N6  UNL     1      24.761  82.645   8.564  0.00  0.00    -0.106 NA
ENDBRANCH  36  39
ENDBRANCH  32  33
ENDBRANCH  31  32
ENDBRANCH  30  31
ENDBRANCH  29  30
ENDBRANCH  28  29
ENDBRANCH  27  28
ENDBRANCH   6  27
TORSDOF 11
ENDMDL
MODEL 3
REMARK VINA RESULT:      -2.8      2.800      5.725
REMARK  Name = ./data/4u7t_site_bc02/pdb/l1c1.pdb
REMARK  11 active torsions:
REMARK  status: ('A' for Active; 'I' for Inactive)
REMARK    1  A    between atoms: O1_2  and  C2_3
REMARK    2  A    between atoms: C5_6  and  C6_7
REMARK    3  A    between atoms: N2_9  and  C7_10
REMARK    4  A    between atoms: C22_26  and  O3_27
REMARK    5  A    between atoms: O3_27  and  C23_28
REMARK    6  A    between atoms: C23_28  and  C24_29
REMARK    7  A    between atoms: C24_29  and  C25_30
REMARK    8  A    between atoms: C25_30  and  C26_31
REMARK    9  A    between atoms: C26_31  and  O4_32
REMARK   10  A    between atoms: O4_32  and  C27_33
REMARK   11  A    between atoms: C30_36  and  C31_37
REMARK                            x       y       z     vdW  Elec       q    Type
REMARK                         _______ _______ _______ _____ _____    ______ ____
ROOT
ATOM      1  C2  UNL     1      18.033  81.218   7.314  0.00  0.00    +0.172 A 
ATOM      2  C3  UNL     1      16.773  81.733   7.664  0.00  0.00    +0.040 A 
ATOM      3  C4  UNL     1      15.611  81.215   7.090  0.00  0.00    +0.005 A 
ATOM      4  C5  UNL     1      15.673  80.160   6.162  0.00  0.00    +0.018 A 
ATOM      5  C21 UNL     1      16.939  79.637   5.828  0.00  0.00    +0.041 A 
ATOM      6  C22 UNL     1      18.118  80.171   6.386  0.00  0.00    +0.172 A 
ENDROOT
BRANCH   4   7
ATOM      7  C6  UNL     1      14.445  79.601   5.517  0.00  0.00    +0.079 C 
ATOM      8  N1  UNL     1      13.907  80.267   4.541  0.00  0.00    -0.172 NA
ATOM      9  N2  UNL     1      12.727  79.904   3.865  0.00  0.00    -0.222 N 
ATOM     10  C14 UNL     1      12.151  78.743   4.072  0.00  0.00    +0.253 C 
ATOM     11  O2  UNL     1      11.045  78.371   3.301  0.00  0.00    -0.271 OA
ATOM     12  C15 UNL     1      12.696  77.755   5.090  0.00  0.00    +0.091 C 
ATOM     13  C16 UNL     1      11.517  77.046   5.834  0.00  0.00    +0.035 C 
ATOM     14  C17 UNL     1      11.856  76.621   7.238  0.00  0.00    -0.030 C 
ATOM     15  C18 UNL     1      12.567  77.434   8.024  0.00  0.00    -0.030 C 
ATOM     16  C19 UNL     1      13.133  78.697   7.447  0.00  0.00    +0.032 C 
ATOM     17  C20 UNL     1      13.748  78.377   6.068  0.00  0.00    +0.056 C 
BRANCH   9  18
ATOM     18  C7  UNL     1      12.230  80.878   2.867  0.00  0.00    +0.108 C 
ATOM     19  C8  UNL     1      10.696  80.764   2.711  0.00  0.00    +0.024 C 
ATOM     20  C9  UNL     1      10.166  81.370   1.405  0.00  0.00    +0.002 C 
ATOM     21  C10 UNL     1      10.491  82.863   1.242  0.00  0.00    +0.000 C 
ATOM     22  C11 UNL     1      11.952  83.100   0.824  0.00  0.00    +0.000 C 
ATOM     23  C12 UNL     1      12.949  83.214   1.994  0.00  0.00    +0.002 C 
ATOM     24  C13 UNL     1      12.678  82.318   3.218  0.00  0.00    +0.024 C 
ENDBRANCH   9  18
ENDBRANCH   4   7
BRANCH   1  26
ATOM     25  C1  UNL     1      19.453  81.898   9.260  0.00  0.00    +0.253 C 
ATOM     26  O1  UNL     1      19.224  81.719   7.867  0.00  0.00    -0.468 OA
ENDBRANCH   1  26
BRANCH   6  27
ATOM     27  O3  UNL     1      19.391  79.695   6.036  0.00  0.00    -0.472 OA
BRANCH  27  28
ATOM     28  C23 UNL     1      20.598  80.444   6.156  0.00  0.00    +0.206 C 
BRANCH  28  29
ATOM     29  C24 UNL     1      20.646  81.539   5.088  0.00  0.00    +0.051 C 
BRANCH  29  30
ATOM     30  C25 UNL     1      21.392  82.781   5.597  0.00  0.00    +0.051 C 
BRANCH  30  31
ATOM     31  C26 UNL     1      20.562  84.051   5.417  0.00  0.00    +0.206 C 
BRANCH  31  32
ATOM     32  O4  UNL     1      20.086  84.516   6.678  0.00  0.00    -0.475 OA
BRANCH  32  33
ATOM     33  C27 UNL     1      18.789  85.007   6.898  0.00  0.00    +0.139 A 
ATOM     34  C28 UNL     1      18.530  86.092   7.756  0.00  0.00    +0.037 A 
ATOM     35  C29 UNL     1      17.222  86.550   7.940  0.00  0.00    +0.006 A 
ATOM     36  C30 UNL     1      16.146  85.940   7.268  0.00  0.00    +0.040 A 
ATOM     37  C32 UNL     1      16.413  84.854   6.414  0.00  0.00    +0.006 A 
ATOM     38  C33 UNL     1      17.722  84.393   6.237  0.00  0.00    +0.037 A 
BRANCH  36  39
ATOM     39  C31 UNL     1      14.758  86.439   7.455  0.00  0.00    +0.208 A 
ATOM     40  N3  UNL     1      14.185  86.727   8.645  0.00  0.00    -0.106 NA
ATOM     41  N4  UNL     1      12.963  87.148   8.364  0.00  0.00    -0.021 NA
ATOM     42  N5  UNL     1      12.777  87.125   7.056  0.00  0.00    -0.021 NA
ATOM     43  N6  UNL     1      13.875  86.689   6.461  0.00  0.00    -0.106 NA
ENDBRANCH  36  39
ENDBRANCH  32  33
ENDBRANCH  31  32
ENDBRANCH  30  31
ENDBRANCH  29  30
ENDBRANCH  28  29
ENDBRANCH  27  28
ENDBRANCH   6  27
TORSDOF 11
ENDMDL
MODEL 4
REMARK VINA RESULT:      -2.2      2.779      3.770
REMARK  Name = ./data/4u7t_site_bc02/pdb/l1c1.pdb
REMARK  11 active torsions:
REMARK  status: ('A' for Active; 'I' for Inactive)
REMARK    1  A    between atoms: O1_2  and  C2_3
REMARK    2  A    between atoms: C5_6  and  C6_7
REMARK    3  A    between atoms: N2_9  and  C7_10
REMARK    4  A    between atoms: C22_26  and  O3_27
REMARK    5  A    between atoms: O3_27  and  C23_28
REMARK    6  A    between atoms: C23_28  and  C24_29
REMARK    7  A    between atoms: C24_29  and  C25_30
REMARK    8  A    between atoms: C25_30  and  C26_31
REMARK    9  A    between atoms: C26_31  and  O4_32
REMARK   10  A    between atoms: O4_32  and  C27_33
REMARK   11  A    between atoms: C30_36  and  C31_37
REMARK                            x       y       z     vdW  Elec       q    Type
REMARK                         _______ _______ _______ _____ _____    ______ ____
ROOT
ATOM      1  C2  UNL     1      15.962  85.048   6.571  0.00  0.00    +0.172 A 
ATOM      2  C3  UNL     1      14.624  85.424   6.361  0.00  0.00    +0.040 A 
ATOM      3  C4  UNL     1      13.692  84.497   5.892  0.00  0.00    +0.005 A 
ATOM      4  C5  UNL     1      14.066  83.165   5.634  0.00  0.00    +0.018 A 
ATOM      5  C21 UNL     1      15.406  82.791   5.863  0.00  0.00    +0.041 A 
ATOM      6  C22 UNL     1      16.357  83.727   6.313  0.00  0.00    +0.172 A 
ENDROOT
BRANCH   4   7
ATOM      7  C6  UNL     1      13.092  82.158   5.111  0.00  0.00    +0.079 C 
ATOM      8  N1  UNL     1      13.075  80.980   5.656  0.00  0.00    -0.172 NA
ATOM      9  N2  UNL     1      12.256  79.910   5.250  0.00  0.00    -0.222 N 
ATOM     10  C14 UNL     1      11.304  80.077   4.362  0.00  0.00    +0.253 C 
ATOM     11  O2  UNL     1      10.439  79.020   4.066  0.00  0.00    -0.271 OA
ATOM     12  C15 UNL     1      11.072  81.420   3.689  0.00  0.00    +0.091 C 
ATOM     13  C16 UNL     1      10.697  81.208   2.185  0.00  0.00    +0.035 C 
ATOM     14  C17 UNL     1      11.111  82.346   1.292  0.00  0.00    -0.030 C 
ATOM     15  C18 UNL     1      12.303  82.926   1.465  0.00  0.00    -0.030 C 
ATOM     16  C19 UNL     1      13.148  82.522   2.636  0.00  0.00    +0.032 C 
ATOM     17  C20 UNL     1      12.249  82.434   3.887  0.00  0.00    +0.056 C 
BRANCH   9  18
ATOM     18  C7  UNL     1      12.493  78.619   5.936  0.00  0.00    +0.108 C 
ATOM     19  C8  UNL     1      13.988  78.232   5.866  0.00  0.00    +0.024 C 
ATOM     20  C9  UNL     1      14.247  76.740   6.115  0.00  0.00    +0.002 C 
ATOM     21  C10 UNL     1      13.754  76.250   7.485  0.00  0.00    +0.000 C 
ATOM     22  C11 UNL     1      12.229  76.049   7.519  0.00  0.00    +0.000 C 
ATOM     23  C12 UNL     1      11.419  77.304   7.898  0.00  0.00    +0.002 C 
ATOM     24  C13 UNL     1      11.964  78.652   7.391  0.00  0.00    +0.024 C 
ENDBRANCH   9  18
ENDBRANCH   4   7
BRANCH   1  26
ATOM     25  C1  UNL     1      16.640  87.112   7.813  0.00  0.00    +0.253 C 
ATOM     26  O1  UNL     1      16.929  85.955   7.036  0.00  0.00    -0.468 OA
ENDBRANCH   1  26
BRANCH   6  27
ATOM     27  O3  UNL     1      17.705  83.387   6.508  0.00  0.00    -0.472 OA
BRANCH  27  28
ATOM     28  C23 UNL     1      18.656  84.200   7.193  0.00  0.00    +0.206 C 
BRANCH  28  29
ATOM     29  C24 UNL     1      19.561  84.913   6.187  0.00  0.00    +0.051 C 
BRANCH  29  30
ATOM     30  C25 UNL     1      19.154  84.586   4.743  0.00  0.00    +0.051 C 
BRANCH  30  31
ATOM     31  C26 UNL     1      20.253  84.958   3.749  0.00  0.00    +0.206 C 
BRANCH  31  32
ATOM     32  O4  UNL     1      21.502  84.406   4.161  0.00  0.00    -0.475 OA
BRANCH  32  33
ATOM     33  C27 UNL     1      21.630  83.337   5.062  0.00  0.00    +0.139 A 
ATOM     34  C28 UNL     1      22.593  83.328   6.089  0.00  0.00    +0.037 A 
ATOM     35  C29 UNL     1      22.681  82.243   6.965  0.00  0.00    +0.006 A 
ATOM     36  C30 UNL     1      21.806  81.148   6.843  0.00  0.00    +0.040 A 
ATOM     37  C32 UNL     1      20.847  81.163   5.813  0.00  0.00    +0.006 A 
ATOM     38  C33 UNL     1      20.766  82.246   4.931  0.00  0.00    +0.037 A 
BRANCH  36  39
ATOM     39  C31 UNL     1      21.892  80.002   7.787  0.00  0.00    +0.208 A 
ATOM     40  N3  UNL     1      21.143  78.878   7.721  0.00  0.00    -0.106 NA
ATOM     41  N4  UNL     1      21.542  78.120   8.728  0.00  0.00    -0.021 NA
ATOM     42  N5  UNL     1      22.497  78.740   9.398  0.00  0.00    -0.021 NA
ATOM     43  N6  UNL     1      22.740  79.914   8.837  0.00  0.00    -0.106 NA
ENDBRANCH  36  39
ENDBRANCH  32  33
ENDBRANCH  31  32
ENDBRANCH  30  31
ENDBRANCH  29  30
ENDBRANCH  28  29
ENDBRANCH  27  28
ENDBRANCH   6  27
TORSDOF 11
ENDMDL
