MODEL 1
REMARK VINA RESULT:      -8.1      0.000      0.000
REMARK  Name = ./data/4u7t_site_bc02/pdb/l1c1.pdb
REMARK  11 active torsions:
REMARK  status: ('A' for Active; 'I' for Inactive)
REMARK    1  A    between atoms: O1_2  and  C2_3
REMARK    2  A    between atoms: C5_6  and  C6_7
REMARK    3  A    between atoms: N2_9  and  C7_10
REMARK    4  A    between atoms: C22_26  and  O3_27
REMARK    5  A    between atoms: O3_27  and  C23_28
REMARK    6  A    between atoms: C23_28  and  C24_29
REMARK    7  A    between atoms: C24_29  and  C25_30
REMARK    8  A    between atoms: C25_30  and  C26_31
REMARK    9  A    between atoms: C26_31  and  O4_32
REMARK   10  A    between atoms: O4_32  and  C27_33
REMARK   11  A    between atoms: C30_36  and  C31_37
REMARK                            x       y       z     vdW  Elec       q    Type
REMARK                         _______ _______ _______ _____ _____    ______ ____
ROOT
ATOM      1  C2  UNL     1      68.502  55.021 -12.167  0.00  0.00    +0.172 A 
ATOM      2  C3  UNL     1      68.180  55.876 -11.098  0.00  0.00    +0.040 A 
ATOM      3  C4  UNL     1      66.854  56.228 -10.845  0.00  0.00    +0.005 A 
ATOM      4  C5  UNL     1      65.809  55.725 -11.643  0.00  0.00    +0.018 A 
ATOM      5  C21 UNL     1      66.137  54.855 -12.702  0.00  0.00    +0.041 A 
ATOM      6  C22 UNL     1      67.476  54.515 -12.978  0.00  0.00    +0.172 A 
ENDROOT
BRANCH   4   7
ATOM      7  C6  UNL     1      64.381  56.102 -11.405  0.00  0.00    +0.079 C 
ATOM      8  N1  UNL     1      64.092  57.361 -11.284  0.00  0.00    -0.172 NA
ATOM      9  N2  UNL     1      62.811  57.877 -11.011  0.00  0.00    -0.222 N 
ATOM     10  C14 UNL     1      61.749  57.104 -11.014  0.00  0.00    +0.253 C 
ATOM     11  O2  UNL     1      60.481  57.669 -10.849  0.00  0.00    -0.271 OA
ATOM     12  C15 UNL     1      61.856  55.608 -11.260  0.00  0.00    +0.091 C 
ATOM     13  C16 UNL     1      60.849  54.841 -10.340  0.00  0.00    +0.035 C 
ATOM     14  C17 UNL     1      61.303  53.453  -9.973  0.00  0.00    -0.030 C 
ATOM     15  C18 UNL     1      62.583  53.235  -9.658  0.00  0.00    -0.030 C 
ATOM     16  C19 UNL     1      63.573  54.351  -9.811  0.00  0.00    +0.032 C 
ATOM     17  C20 UNL     1      63.317  55.057 -11.159  0.00  0.00    +0.056 C 
BRANCH   9  18
ATOM     18  C7  UNL     1      62.736  59.339 -10.793  0.00  0.00    +0.108 C 
ATOM     19  C8  UNL     1      63.692  59.770  -9.657  0.00  0.00    +0.024 C 
ATOM     20  C9  UNL     1      63.347  61.137  -9.052  0.00  0.00    +0.002 C 
ATOM     21  C10 UNL     1      63.369  62.286 -10.072  0.00  0.00    +0.000 C 
ATOM     22  C11 UNL     1      62.115  62.300 -10.963  0.00  0.00    +0.000 C 
ATOM     23  C12 UNL     1      62.212  61.433 -12.233  0.00  0.00    +0.002 C 
ATOM     24  C13 UNL     1      63.000  60.116 -12.107  0.00  0.00    +0.024 C 
ENDBRANCH   9  18
ENDBRANCH   4   7
BRANCH   1  26
ATOM     25  C1  UNL     1      70.847  54.486 -11.478  0.00  0.00    +0.253 C 
ATOM     26  O1  UNL     1      69.826  54.652 -12.455  0.00  0.00    -0.468 OA
ENDBRANCH   1  26
BRANCH   6  27
ATOM     27  O3  UNL     1      67.829  53.685 -14.054  0.00  0.00    -0.472 OA
BRANCH  27  28
ATOM     28  C23 UNL     1      66.948  53.306 -15.109  0.00  0.00    +0.206 C 
BRANCH  28  29
ATOM     29  C24 UNL     1      67.423  53.908 -16.432  0.00  0.00    +0.051 C 
BRANCH  29  30
ATOM     30  C25 UNL     1      66.985  53.045 -17.625  0.00  0.00    +0.051 C 
BRANCH  30  31
ATOM     31  C26 UNL     1      66.403  53.895 -18.753  0.00  0.00    +0.206 C 
BRANCH  31  32
ATOM     32  O4  UNL     1      65.809  55.079 -18.225  0.00  0.00    -0.475 OA
BRANCH  32  33
ATOM     33  C27 UNL     1      66.047  56.369 -18.726  0.00  0.00    +0.139 A 
ATOM     34  C28 UNL     1      65.004  57.261 -19.038  0.00  0.00    +0.037 A 
ATOM     35  C29 UNL     1      65.289  58.538 -19.529  0.00  0.00    +0.006 A 
ATOM     36  C30 UNL     1      66.620  58.956 -19.713  0.00  0.00    +0.040 A 
ATOM     37  C32 UNL     1      67.658  58.058 -19.401  0.00  0.00    +0.006 A 
ATOM     38  C33 UNL     1      67.370  56.778 -18.917  0.00  0.00    +0.037 A 
BRANCH  36  39
ATOM     39  C31 UNL     1      66.921  60.321 -20.222  0.00  0.00    +0.208 A 
ATOM     40  N3  UNL     1      66.768  60.728 -21.502  0.00  0.00    -0.106 NA
ATOM     41  N4  UNL     1      67.131  61.999 -21.522  0.00  0.00    -0.021 NA
ATOM     42  N5  UNL     1      67.497  62.374 -20.309  0.00  0.00    -0.021 NA
ATOM     43  N6  UNL     1      67.377  61.352 -19.476  0.00  0.00    -0.106 NA
ENDBRANCH  36  39
ENDBRANCH  32  33
ENDBRANCH  31  32
ENDBRANCH  30  31
ENDBRANCH  29  30
ENDBRANCH  28  29
ENDBRANCH  27  28
ENDBRANCH   6  27
TORSDOF 11
ENDMDL
MODEL 2
REMARK VINA RESULT:      -7.0      2.730      5.104
REMARK  Name = ./data/4u7t_site_bc02/pdb/l1c1.pdb
REMARK  11 active torsions:
REMARK  status: ('A' for Active; 'I' for Inactive)
REMARK    1  A    between atoms: O1_2  and  C2_3
REMARK    2  A    between atoms: C5_6  and  C6_7
REMARK    3  A    between atoms: N2_9  and  C7_10
REMARK    4  A    between atoms: C22_26  and  O3_27
REMARK    5  A    between atoms: O3_27  and  C23_28
REMARK    6  A    between atoms: C23_28  and  C24_29
REMARK    7  A    between atoms: C24_29  and  C25_30
REMARK    8  A    between atoms: C25_30  and  C26_31
REMARK    9  A    between atoms: C26_31  and  O4_32
REMARK   10  A    between atoms: O4_32  and  C27_33
REMARK   11  A    between atoms: C30_36  and  C31_37
REMARK                            x       y       z     vdW  Elec       q    Type
REMARK                         _______ _______ _______ _____ _____    ______ ____
ROOT
ATOM      1  C2  UNL     1      61.894  55.312  -9.604  0.00  0.00    +0.172 A 
ATOM      2  C3  UNL     1      61.689  56.005  -8.399  0.00  0.00    +0.040 A 
ATOM      3  C4  UNL     1      62.129  57.321  -8.252  0.00  0.00    +0.005 A 
ATOM      4  C5  UNL     1      62.773  57.988  -9.311  0.00  0.00    +0.018 A 
ATOM      5  C21 UNL     1      62.961  57.293 -10.523  0.00  0.00    +0.041 A 
ATOM      6  C22 UNL     1      62.541  55.956 -10.669  0.00  0.00    +0.172 A 
ENDROOT
BRANCH   4   7
ATOM      7  C6  UNL     1      63.273  59.391  -9.174  0.00  0.00    +0.079 C 
ATOM      8  N1  UNL     1      62.779  60.298  -9.960  0.00  0.00    -0.172 NA
ATOM      9  N2  UNL     1      63.175  61.648  -9.990  0.00  0.00    -0.222 N 
ATOM     10  C14 UNL     1      63.990  62.141  -9.088  0.00  0.00    +0.253 C 
ATOM     11  O2  UNL     1      64.273  63.511  -9.084  0.00  0.00    -0.271 OA
ATOM     12  C15 UNL     1      64.588  61.269  -7.996  0.00  0.00    +0.091 C 
ATOM     13  C16 UNL     1      66.072  61.688  -7.728  0.00  0.00    +0.035 C 
ATOM     14  C17 UNL     1      66.941  60.559  -7.244  0.00  0.00    -0.030 C 
ATOM     15  C18 UNL     1      66.823  59.347  -7.794  0.00  0.00    -0.030 C 
ATOM     16  C19 UNL     1      65.728  59.101  -8.789  0.00  0.00    +0.032 C 
ATOM     17  C20 UNL     1      64.426  59.734  -8.258  0.00  0.00    +0.056 C 
BRANCH   9  18
ATOM     18  C7  UNL     1      62.562  62.476 -11.054  0.00  0.00    +0.108 C 
ATOM     19  C8  UNL     1      62.011  61.585 -12.190  0.00  0.00    +0.024 C 
ATOM     20  C9  UNL     1      61.798  62.336 -13.510  0.00  0.00    +0.002 C 
ATOM     21  C10 UNL     1      60.820  63.516 -13.396  0.00  0.00    +0.000 C 
ATOM     22  C11 UNL     1      61.465  64.747 -12.735  0.00  0.00    +0.000 C 
ATOM     23  C12 UNL     1      61.372  64.778 -11.197  0.00  0.00    +0.002 C 
ATOM     24  C13 UNL     1      61.481  63.422 -10.475  0.00  0.00    +0.024 C 
ENDBRANCH   9  18
ENDBRANCH   4   7
BRANCH   1  26
ATOM     25  C1  UNL     1      62.302  52.843  -9.606  0.00  0.00    +0.253 C 
ATOM     26  O1  UNL     1      61.471  53.985  -9.784  0.00  0.00    -0.468 OA
ENDBRANCH   1  26
BRANCH   6  27
ATOM     27  O3  UNL     1      62.755  55.231 -11.852  0.00  0.00    -0.472 OA
BRANCH  27  28
ATOM     28  C23 UNL     1      61.911  55.284 -13.000  0.00  0.00    +0.206 C 
BRANCH  28  29
ATOM     29  C24 UNL     1      62.713  54.948 -14.258  0.00  0.00    +0.051 C 
BRANCH  29  30
ATOM     30  C25 UNL     1      63.638  56.109 -14.656  0.00  0.00    +0.051 C 
BRANCH  30  31
ATOM     31  C26 UNL     1      64.920  55.607 -15.318  0.00  0.00    +0.206 C 
BRANCH  31  32
ATOM     32  O4  UNL     1      64.732  55.476 -16.726  0.00  0.00    -0.475 OA
BRANCH  32  33
ATOM     33  C27 UNL     1      65.152  56.429 -17.667  0.00  0.00    +0.139 A 
ATOM     34  C28 UNL     1      66.492  56.540 -18.081  0.00  0.00    +0.037 A 
ATOM     35  C29 UNL     1      66.863  57.501 -19.025  0.00  0.00    +0.006 A 
ATOM     36  C30 UNL     1      65.904  58.368 -19.583  0.00  0.00    +0.040 A 
ATOM     37  C32 UNL     1      64.566  58.253 -19.163  0.00  0.00    +0.006 A 
ATOM     38  C33 UNL     1      64.199  57.295 -18.211  0.00  0.00    +0.037 A 
BRANCH  36  39
ATOM     39  C31 UNL     1      66.299  59.380 -20.598  0.00  0.00    +0.208 A 
ATOM     40  N3  UNL     1      66.051  59.294 -21.924  0.00  0.00    -0.106 NA
ATOM     41  N4  UNL     1      66.552  60.396 -22.457  0.00  0.00    -0.021 NA
ATOM     42  N5  UNL     1      67.092  61.140 -21.509  0.00  0.00    -0.021 NA
ATOM     43  N6  UNL     1      66.951  60.537 -20.340  0.00  0.00    -0.106 NA
ENDBRANCH  36  39
ENDBRANCH  32  33
ENDBRANCH  31  32
ENDBRANCH  30  31
ENDBRANCH  29  30
ENDBRANCH  28  29
ENDBRANCH  27  28
ENDBRANCH   6  27
TORSDOF 11
ENDMDL
MODEL 3
REMARK VINA RESULT:      -7.0      4.951      9.160
REMARK  Name = ./data/4u7t_site_bc02/pdb/l1c1.pdb
REMARK  11 active torsions:
REMARK  status: ('A' for Active; 'I' for Inactive)
REMARK    1  A    between atoms: O1_2  and  C2_3
REMARK    2  A    between atoms: C5_6  and  C6_7
REMARK    3  A    between atoms: N2_9  and  C7_10
REMARK    4  A    between atoms: C22_26  and  O3_27
REMARK    5  A    between atoms: O3_27  and  C23_28
REMARK    6  A    between atoms: C23_28  and  C24_29
REMARK    7  A    between atoms: C24_29  and  C25_30
REMARK    8  A    between atoms: C25_30  and  C26_31
REMARK    9  A    between atoms: C26_31  and  O4_32
REMARK   10  A    between atoms: O4_32  and  C27_33
REMARK   11  A    between atoms: C30_36  and  C31_37
REMARK                            x       y       z     vdW  Elec       q    Type
REMARK                         _______ _______ _______ _____ _____    ______ ____
ROOT
ATOM      1  C2  UNL     1      61.165  55.964 -11.185  0.00  0.00    +0.172 A 
ATOM      2  C3  UNL     1      61.533  55.605 -12.493  0.00  0.00    +0.040 A 
ATOM      3  C4  UNL     1      62.090  54.352 -12.756  0.00  0.00    +0.005 A 
ATOM      4  C5  UNL     1      62.282  53.418 -11.721  0.00  0.00    +0.018 A 
ATOM      5  C21 UNL     1      61.896  53.778 -10.414  0.00  0.00    +0.041 A 
ATOM      6  C22 UNL     1      61.356  55.050 -10.139  0.00  0.00    +0.172 A 
ENDROOT
BRANCH   4   7
ATOM      7  C6  UNL     1      62.896  52.077 -11.972  0.00  0.00    +0.079 C 
ATOM      8  N1  UNL     1      62.120  51.108 -12.349  0.00  0.00    -0.172 NA
ATOM      9  N2  UNL     1      62.532  49.781 -12.577  0.00  0.00    -0.222 N 
ATOM     10  C14 UNL     1      63.802  49.450 -12.577  0.00  0.00    +0.253 C 
ATOM     11  O2  UNL     1      64.179  48.148 -12.918  0.00  0.00    -0.271 OA
ATOM     12  C15 UNL     1      64.888  50.470 -12.280  0.00  0.00    +0.091 C 
ATOM     13  C16 UNL     1      66.022  49.812 -11.427  0.00  0.00    +0.035 C 
ATOM     14  C17 UNL     1      66.738  50.779 -10.523  0.00  0.00    -0.030 C 
ATOM     15  C18 UNL     1      66.042  51.705  -9.856  0.00  0.00    -0.030 C 
ATOM     16  C19 UNL     1      64.575  51.851 -10.129  0.00  0.00    +0.032 C 
ATOM     17  C20 UNL     1      64.349  51.800 -11.655  0.00  0.00    +0.056 C 
BRANCH   9  18
ATOM     18  C7  UNL     1      61.452  48.814 -12.882  0.00  0.00    +0.108 C 
ATOM     19  C8  UNL     1      60.184  49.137 -12.059  0.00  0.00    +0.024 C 
ATOM     20  C9  UNL     1      59.211  47.956 -11.945  0.00  0.00    +0.002 C 
ATOM     21  C10 UNL     1      58.707  47.440 -13.302  0.00  0.00    +0.000 C 
ATOM     22  C11 UNL     1      59.756  46.579 -14.026  0.00  0.00    +0.000 C 
ATOM     23  C12 UNL     1      60.740  47.366 -14.913  0.00  0.00    +0.002 C 
ATOM     24  C13 UNL     1      61.165  48.755 -14.402  0.00  0.00    +0.024 C 
ENDBRANCH   9  18
ENDBRANCH   4   7
BRANCH   1  26
ATOM     25  C1  UNL     1      61.297  58.457 -11.010  0.00  0.00    +0.253 C 
ATOM     26  O1  UNL     1      60.608  57.218 -10.884  0.00  0.00    -0.468 OA
ENDBRANCH   1  26
BRANCH   6  27
ATOM     27  O3  UNL     1      61.003  55.446  -8.839  0.00  0.00    -0.472 OA
BRANCH  27  28
ATOM     28  C23 UNL     1      61.807  56.269  -7.996  0.00  0.00    +0.206 C 
BRANCH  28  29
ATOM     29  C24 UNL     1      63.290  56.024  -8.281  0.00  0.00    +0.051 C 
BRANCH  29  30
ATOM     30  C25 UNL     1      64.016  57.335  -8.619  0.00  0.00    +0.051 C 
BRANCH  30  31
ATOM     31  C26 UNL     1      64.612  57.303 -10.026  0.00  0.00    +0.206 C 
BRANCH  31  32
ATOM     32  O4  UNL     1      65.731  56.420 -10.069  0.00  0.00    -0.475 OA
BRANCH  32  33
ATOM     33  C27 UNL     1      66.064  55.625 -11.178  0.00  0.00    +0.139 A 
ATOM     34  C28 UNL     1      65.271  55.582 -12.340  0.00  0.00    +0.037 A 
ATOM     35  C29 UNL     1      65.644  54.780 -13.421  0.00  0.00    +0.006 A 
ATOM     36  C30 UNL     1      66.821  54.009 -13.370  0.00  0.00    +0.040 A 
ATOM     37  C32 UNL     1      67.608  54.055 -12.205  0.00  0.00    +0.006 A 
ATOM     38  C33 UNL     1      67.228  54.853 -11.121  0.00  0.00    +0.037 A 
BRANCH  36  39
ATOM     39  C31 UNL     1      67.224  53.167 -14.529  0.00  0.00    +0.208 A 
ATOM     40  N3  UNL     1      67.694  51.902 -14.449  0.00  0.00    -0.106 NA
ATOM     41  N4  UNL     1      67.915  51.521 -15.696  0.00  0.00    -0.021 NA
ATOM     42  N5  UNL     1      67.600  52.503 -16.521  0.00  0.00    -0.021 NA
ATOM     43  N6  UNL     1      67.165  53.542 -15.827  0.00  0.00    -0.106 NA
ENDBRANCH  36  39
ENDBRANCH  32  33
ENDBRANCH  31  32
ENDBRANCH  30  31
ENDBRANCH  29  30
ENDBRANCH  28  29
ENDBRANCH  27  28
ENDBRANCH   6  27
TORSDOF 11
ENDMDL
MODEL 4
REMARK VINA RESULT:      -6.3      5.097      7.892
REMARK  Name = ./data/4u7t_site_bc02/pdb/l1c1.pdb
REMARK  11 active torsions:
REMARK  status: ('A' for Active; 'I' for Inactive)
REMARK    1  A    between atoms: O1_2  and  C2_3
REMARK    2  A    between atoms: C5_6  and  C6_7
REMARK    3  A    between atoms: N2_9  and  C7_10
REMARK    4  A    between atoms: C22_26  and  O3_27
REMARK    5  A    between atoms: O3_27  and  C23_28
REMARK    6  A    between atoms: C23_28  and  C24_29
REMARK    7  A    between atoms: C24_29  and  C25_30
REMARK    8  A    between atoms: C25_30  and  C26_31
REMARK    9  A    between atoms: C26_31  and  O4_32
REMARK   10  A    between atoms: O4_32  and  C27_33
REMARK   11  A    between atoms: C30_36  and  C31_37
REMARK                            x       y       z     vdW  Elec       q    Type
REMARK                         _______ _______ _______ _____ _____    ______ ____
ROOT
ATOM      1  C2  UNL     1      68.781  56.285 -10.467  0.00  0.00    +0.172 A 
ATOM      2  C3  UNL     1      68.120  55.523 -11.446  0.00  0.00    +0.040 A 
ATOM      3  C4  UNL     1      66.739  55.330 -11.383  0.00  0.00    +0.005 A 
ATOM      4  C5  UNL     1      65.978  55.904 -10.348  0.00  0.00    +0.018 A 
ATOM      5  C21 UNL     1      66.645  56.680  -9.378  0.00  0.00    +0.041 A 
ATOM      6  C22 UNL     1      68.041  56.859  -9.423  0.00  0.00    +0.172 A 
ENDROOT
BRANCH   4   7
ATOM      7  C6  UNL     1      64.500  55.695 -10.245  0.00  0.00    +0.079 C 
ATOM      8  N1  UNL     1      64.048  54.479 -10.286  0.00  0.00    -0.172 NA
ATOM      9  N2  UNL     1      62.688  54.118 -10.252  0.00  0.00    -0.222 N 
ATOM     10  C14 UNL     1      61.752  55.005 -10.009  0.00  0.00    +0.253 C 
ATOM     11  O2  UNL     1      60.423  54.591  -9.871  0.00  0.00    -0.271 OA
ATOM     12  C15 UNL     1      62.083  56.475  -9.805  0.00  0.00    +0.091 C 
ATOM     13  C16 UNL     1      60.986  57.369 -10.473  0.00  0.00    +0.035 C 
ATOM     14  C17 UNL     1      61.499  58.703 -10.945  0.00  0.00    -0.030 C 
ATOM     15  C18 UNL     1      62.688  58.781 -11.549  0.00  0.00    -0.030 C 
ATOM     16  C19 UNL     1      63.552  57.557 -11.622  0.00  0.00    +0.032 C 
ATOM     17  C20 UNL     1      63.535  56.859 -10.246  0.00  0.00    +0.056 C 
BRANCH   9  18
ATOM     18  C7  UNL     1      62.398  52.678 -10.436  0.00  0.00    +0.108 C 
ATOM     19  C8  UNL     1      62.898  52.193 -11.816  0.00  0.00    +0.024 C 
ATOM     20  C9  UNL     1      62.241  50.887 -12.282  0.00  0.00    +0.002 C 
ATOM     21  C10 UNL     1      62.464  49.709 -11.321  0.00  0.00    +0.000 C 
ATOM     22  C11 UNL     1      61.558  49.788 -10.080  0.00  0.00    +0.000 C 
ATOM     23  C12 UNL     1      62.139  50.598  -8.905  0.00  0.00    +0.002 C 
ATOM     24  C13 UNL     1      62.979  51.836  -9.273  0.00  0.00    +0.024 C 
ENDBRANCH   9  18
ENDBRANCH   4   7
BRANCH   1  26
ATOM     25  C1  UNL     1      70.987  56.324 -11.648  0.00  0.00    +0.253 C 
ATOM     26  O1  UNL     1      70.170  56.494 -10.495  0.00  0.00    -0.468 OA
ENDBRANCH   1  26
BRANCH   6  27
ATOM     27  O3  UNL     1      68.732  57.592  -8.446  0.00  0.00    -0.472 OA
BRANCH  27  28
ATOM     28  C23 UNL     1      68.514  58.973  -8.163  0.00  0.00    +0.206 C 
BRANCH  28  29
ATOM     29  C24 UNL     1      67.713  59.126  -6.869  0.00  0.00    +0.051 C 
BRANCH  29  30
ATOM     30  C25 UNL     1      66.449  59.969  -7.093  0.00  0.00    +0.051 C 
BRANCH  30  31
ATOM     31  C26 UNL     1      66.321  60.419  -8.547  0.00  0.00    +0.206 C 
BRANCH  31  32
ATOM     32  O4  UNL     1      65.543  61.612  -8.630  0.00  0.00    -0.475 OA
BRANCH  32  33
ATOM     33  C27 UNL     1      64.596  61.865  -9.635  0.00  0.00    +0.139 A 
ATOM     34  C28 UNL     1      63.223  62.003  -9.360  0.00  0.00    +0.037 A 
ATOM     35  C29 UNL     1      62.317  62.260 -10.392  0.00  0.00    +0.006 A 
ATOM     36  C30 UNL     1      62.762  62.392 -11.721  0.00  0.00    +0.040 A 
ATOM     37  C32 UNL     1      64.136  62.252 -11.990  0.00  0.00    +0.006 A 
ATOM     38  C33 UNL     1      65.040  61.987 -10.955  0.00  0.00    +0.037 A 
BRANCH  36  39
ATOM     39  C31 UNL     1      61.797  62.681 -12.816  0.00  0.00    +0.208 A 
ATOM     40  N3  UNL     1      61.519  61.855 -13.849  0.00  0.00    -0.106 NA
ATOM     41  N4  UNL     1      60.609  62.481 -14.576  0.00  0.00    -0.021 NA
ATOM     42  N5  UNL     1      60.329  63.649 -14.025  0.00  0.00    -0.021 NA
ATOM     43  N6  UNL     1      61.051  63.804 -12.927  0.00  0.00    -0.106 NA
ENDBRANCH  36  39
ENDBRANCH  32  33
ENDBRANCH  31  32
ENDBRANCH  30  31
ENDBRANCH  29  30
ENDBRANCH  28  29
ENDBRANCH  27  28
ENDBRANCH   6  27
TORSDOF 11
ENDMDL
MODEL 5
REMARK VINA RESULT:      -6.2      4.948      7.262
REMARK  Name = ./data/4u7t_site_bc02/pdb/l1c1.pdb
REMARK  11 active torsions:
REMARK  status: ('A' for Active; 'I' for Inactive)
REMARK    1  A    between atoms: O1_2  and  C2_3
REMARK    2  A    between atoms: C5_6  and  C6_7
REMARK    3  A    between atoms: N2_9  and  C7_10
REMARK    4  A    between atoms: C22_26  and  O3_27
REMARK    5  A    between atoms: O3_27  and  C23_28
REMARK    6  A    between atoms: C23_28  and  C24_29
REMARK    7  A    between atoms: C24_29  and  C25_30
REMARK    8  A    between atoms: C25_30  and  C26_31
REMARK    9  A    between atoms: C26_31  and  O4_32
REMARK   10  A    between atoms: O4_32  and  C27_33
REMARK   11  A    between atoms: C30_36  and  C31_37
REMARK                            x       y       z     vdW  Elec       q    Type
REMARK                         _______ _______ _______ _____ _____    ______ ____
ROOT
ATOM      1  C2  UNL     1      70.587  57.285 -10.614  0.00  0.00    +0.172 A 
ATOM      2  C3  UNL     1      70.543  56.631 -11.858  0.00  0.00    +0.040 A 
ATOM      3  C4  UNL     1      69.473  55.796 -12.183  0.00  0.00    +0.005 A 
ATOM      4  C5  UNL     1      68.411  55.601 -11.281  0.00  0.00    +0.018 A 
ATOM      5  C21 UNL     1      68.453  56.273 -10.042  0.00  0.00    +0.041 A 
ATOM      6  C22 UNL     1      69.542  57.098  -9.698  0.00  0.00    +0.172 A 
ENDROOT
BRANCH   4   7
ATOM      7  C6  UNL     1      67.263  54.695 -11.596  0.00  0.00    +0.079 C 
ATOM      8  N1  UNL     1      66.068  55.081 -11.268  0.00  0.00    -0.172 NA
ATOM      9  N2  UNL     1      64.894  54.328 -11.450  0.00  0.00    -0.222 N 
ATOM     10  C14 UNL     1      64.900  53.206 -12.131  0.00  0.00    +0.253 C 
ATOM     11  O2  UNL     1      63.696  52.543 -12.387  0.00  0.00    -0.271 OA
ATOM     12  C15 UNL     1      66.184  52.637 -12.713  0.00  0.00    +0.091 C 
ATOM     13  C16 UNL     1      66.188  51.078 -12.579  0.00  0.00    +0.035 C 
ATOM     14  C17 UNL     1      67.567  50.486 -12.454  0.00  0.00    -0.030 C 
ATOM     15  C18 UNL     1      68.481  51.087 -11.687  0.00  0.00    -0.030 C 
ATOM     16  C19 UNL     1      68.158  52.417 -11.074  0.00  0.00    +0.032 C 
ATOM     17  C20 UNL     1      67.482  53.302 -12.141  0.00  0.00    +0.056 C 
BRANCH   9  18
ATOM     18  C7  UNL     1      63.656  54.916 -10.888  0.00  0.00    +0.108 C 
ATOM     19  C8  UNL     1      63.910  55.463  -9.465  0.00  0.00    +0.024 C 
ATOM     20  C9  UNL     1      62.629  55.649  -8.642  0.00  0.00    +0.002 C 
ATOM     21  C10 UNL     1      61.619  56.613  -9.285  0.00  0.00    +0.000 C 
ATOM     22  C11 UNL     1      60.847  55.961 -10.445  0.00  0.00    +0.000 C 
ATOM     23  C12 UNL     1      61.530  56.074 -11.821  0.00  0.00    +0.002 C 
ATOM     24  C13 UNL     1      63.068  55.992 -11.834  0.00  0.00    +0.024 C 
ENDBRANCH   9  18
ENDBRANCH   4   7
BRANCH   1  26
ATOM     25  C1  UNL     1      71.817  59.462 -10.717  0.00  0.00    +0.253 C 
ATOM     26  O1  UNL     1      71.651  58.127 -10.251  0.00  0.00    -0.468 OA
ENDBRANCH   1  26
BRANCH   6  27
ATOM     27  O3  UNL     1      69.626  57.743  -8.454  0.00  0.00    -0.472 OA
BRANCH  27  28
ATOM     28  C23 UNL     1      68.987  58.977  -8.135  0.00  0.00    +0.206 C 
BRANCH  28  29
ATOM     29  C24 UNL     1      67.645  58.713  -7.452  0.00  0.00    +0.051 C 
BRANCH  29  30
ATOM     30  C25 UNL     1      66.487  58.761  -8.460  0.00  0.00    +0.051 C 
BRANCH  30  31
ATOM     31  C26 UNL     1      65.204  59.291  -7.821  0.00  0.00    +0.206 C 
BRANCH  31  32
ATOM     32  O4  UNL     1      64.087  59.041  -8.672  0.00  0.00    -0.475 OA
BRANCH  32  33
ATOM     33  C27 UNL     1      63.620  59.940  -9.643  0.00  0.00    +0.139 A 
ATOM     34  C28 UNL     1      62.810  59.534 -10.720  0.00  0.00    +0.037 A 
ATOM     35  C29 UNL     1      62.365  60.466 -11.660  0.00  0.00    +0.006 A 
ATOM     36  C30 UNL     1      62.711  61.825 -11.544  0.00  0.00    +0.040 A 
ATOM     37  C32 UNL     1      63.522  62.224 -10.465  0.00  0.00    +0.006 A 
ATOM     38  C33 UNL     1      63.974  61.288  -9.530  0.00  0.00    +0.037 A 
BRANCH  36  39
ATOM     39  C31 UNL     1      62.223  62.818 -12.538  0.00  0.00    +0.208 A 
ATOM     40  N3  UNL     1      61.226  62.607 -13.427  0.00  0.00    -0.106 NA
ATOM     41  N4  UNL     1      61.104  63.736 -14.105  0.00  0.00    -0.021 NA
ATOM     42  N5  UNL     1      61.984  64.616 -13.662  0.00  0.00    -0.021 NA
ATOM     43  N6  UNL     1      62.696  64.076 -12.686  0.00  0.00    -0.106 NA
ENDBRANCH  36  39
ENDBRANCH  32  33
ENDBRANCH  31  32
ENDBRANCH  30  31
ENDBRANCH  29  30
ENDBRANCH  28  29
ENDBRANCH  27  28
ENDBRANCH   6  27
TORSDOF 11
ENDMDL
MODEL 6
REMARK VINA RESULT:      -6.0      4.443      7.108
REMARK  Name = ./data/4u7t_site_bc02/pdb/l1c1.pdb
REMARK  11 active torsions:
REMARK  status: ('A' for Active; 'I' for Inactive)
REMARK    1  A    between atoms: O1_2  and  C2_3
REMARK    2  A    between atoms: C5_6  and  C6_7
REMARK    3  A    between atoms: N2_9  and  C7_10
REMARK    4  A    between atoms: C22_26  and  O3_27
REMARK    5  A    between atoms: O3_27  and  C23_28
REMARK    6  A    between atoms: C23_28  and  C24_29
REMARK    7  A    between atoms: C24_29  and  C25_30
REMARK    8  A    between atoms: C25_30  and  C26_31
REMARK    9  A    between atoms: C26_31  and  O4_32
REMARK   10  A    between atoms: O4_32  and  C27_33
REMARK   11  A    between atoms: C30_36  and  C31_37
REMARK                            x       y       z     vdW  Elec       q    Type
REMARK                         _______ _______ _______ _____ _____    ______ ____
ROOT
ATOM      1  C2  UNL     1      66.570  54.452 -13.429  0.00  0.00    +0.172 A 
ATOM      2  C3  UNL     1      65.170  54.380 -13.541  0.00  0.00    +0.040 A 
ATOM      3  C4  UNL     1      64.350  55.043 -12.627  0.00  0.00    +0.005 A 
ATOM      4  C5  UNL     1      64.905  55.809 -11.585  0.00  0.00    +0.018 A 
ATOM      5  C21 UNL     1      66.309  55.891 -11.489  0.00  0.00    +0.041 A 
ATOM      6  C22 UNL     1      67.142  55.204 -12.393  0.00  0.00    +0.172 A 
ENDROOT
BRANCH   4   7
ATOM      7  C6  UNL     1      64.049  56.513 -10.580  0.00  0.00    +0.079 C 
ATOM      8  N1  UNL     1      63.718  57.747 -10.813  0.00  0.00    -0.172 NA
ATOM      9  N2  UNL     1      62.962  58.561  -9.948  0.00  0.00    -0.222 N 
ATOM     10  C14 UNL     1      62.383  58.068  -8.879  0.00  0.00    +0.253 C 
ATOM     11  O2  UNL     1      61.549  58.881  -8.105  0.00  0.00    -0.271 OA
ATOM     12  C15 UNL     1      62.541  56.607  -8.491  0.00  0.00    +0.091 C 
ATOM     13  C16 UNL     1      62.662  56.475  -6.937  0.00  0.00    +0.035 C 
ATOM     14  C17 UNL     1      63.475  55.289  -6.492  0.00  0.00    -0.030 C 
ATOM     15  C18 UNL     1      64.601  54.975  -7.140  0.00  0.00    -0.030 C 
ATOM     16  C19 UNL     1      64.960  55.729  -8.386  0.00  0.00    +0.032 C 
ATOM     17  C20 UNL     1      63.695  55.875  -9.256  0.00  0.00    +0.056 C 
BRANCH   9  18
ATOM     18  C7  UNL     1      62.811  59.975 -10.361  0.00  0.00    +0.108 C 
ATOM     19  C8  UNL     1      63.738  60.888  -9.527  0.00  0.00    +0.024 C 
ATOM     20  C9  UNL     1      63.319  62.364  -9.544  0.00  0.00    +0.002 C 
ATOM     21  C10 UNL     1      63.286  62.979 -10.952  0.00  0.00    +0.000 C 
ATOM     22  C11 UNL     1      62.037  62.558 -11.744  0.00  0.00    +0.000 C 
ATOM     23  C12 UNL     1      62.185  61.244 -12.536  0.00  0.00    +0.002 C 
ATOM     24  C13 UNL     1      63.040  60.141 -11.884  0.00  0.00    +0.024 C 
ENDBRANCH   9  18
ENDBRANCH   4   7
BRANCH   1  26
ATOM     25  C1  UNL     1      67.166  53.630 -15.717  0.00  0.00    +0.253 C 
ATOM     26  O1  UNL     1      67.425  53.791 -14.327  0.00  0.00    -0.468 OA
ENDBRANCH   1  26
BRANCH   6  27
ATOM     27  O3  UNL     1      68.541  55.236 -12.291  0.00  0.00    -0.472 OA
BRANCH  27  28
ATOM     28  C23 UNL     1      69.281  54.811 -11.149  0.00  0.00    +0.206 C 
BRANCH  28  29
ATOM     29  C24 UNL     1      70.308  53.751 -11.551  0.00  0.00    +0.051 C 
BRANCH  29  30
ATOM     30  C25 UNL     1      69.909  52.363 -11.030  0.00  0.00    +0.051 C 
BRANCH  30  31
ATOM     31  C26 UNL     1      68.704  51.802 -11.785  0.00  0.00    +0.206 C 
BRANCH  31  32
ATOM     32  O4  UNL     1      67.781  51.209 -10.875  0.00  0.00    -0.475 OA
BRANCH  32  33
ATOM     33  C27 UNL     1      66.395  51.436 -10.900  0.00  0.00    +0.139 A 
ATOM     34  C28 UNL     1      65.569  50.938 -11.925  0.00  0.00    +0.037 A 
ATOM     35  C29 UNL     1      64.194  51.184 -11.906  0.00  0.00    +0.006 A 
ATOM     36  C30 UNL     1      63.611  51.927 -10.862  0.00  0.00    +0.040 A 
ATOM     37  C32 UNL     1      64.444  52.423  -9.842  0.00  0.00    +0.006 A 
ATOM     38  C33 UNL     1      65.822  52.182  -9.867  0.00  0.00    +0.037 A 
BRANCH  36  39
ATOM     39  C31 UNL     1      62.145  52.175 -10.837  0.00  0.00    +0.208 A 
ATOM     40  N3  UNL     1      61.551  53.299 -10.376  0.00  0.00    -0.106 NA
ATOM     41  N4  UNL     1      60.253  53.116 -10.546  0.00  0.00    -0.021 NA
ATOM     42  N5  UNL     1      60.040  51.930 -11.088  0.00  0.00    -0.021 NA
ATOM     43  N6  UNL     1      61.198  51.319 -11.282  0.00  0.00    -0.106 NA
ENDBRANCH  36  39
ENDBRANCH  32  33
ENDBRANCH  31  32
ENDBRANCH  30  31
ENDBRANCH  29  30
ENDBRANCH  28  29
ENDBRANCH  27  28
ENDBRANCH   6  27
TORSDOF 11
ENDMDL
MODEL 7
REMARK VINA RESULT:      -5.9      4.800      8.219
REMARK  Name = ./data/4u7t_site_bc02/pdb/l1c1.pdb
REMARK  11 active torsions:
REMARK  status: ('A' for Active; 'I' for Inactive)
REMARK    1  A    between atoms: O1_2  and  C2_3
REMARK    2  A    between atoms: C5_6  and  C6_7
REMARK    3  A    between atoms: N2_9  and  C7_10
REMARK    4  A    between atoms: C22_26  and  O3_27
REMARK    5  A    between atoms: O3_27  and  C23_28
REMARK    6  A    between atoms: C23_28  and  C24_29
REMARK    7  A    between atoms: C24_29  and  C25_30
REMARK    8  A    between atoms: C25_30  and  C26_31
REMARK    9  A    between atoms: C26_31  and  O4_32
REMARK   10  A    between atoms: O4_32  and  C27_33
REMARK   11  A    between atoms: C30_36  and  C31_37
REMARK                            x       y       z     vdW  Elec       q    Type
REMARK                         _______ _______ _______ _____ _____    ______ ____
ROOT
ATOM      1  C2  UNL     1      61.846  57.958  -8.974  0.00  0.00    +0.172 A 
ATOM      2  C3  UNL     1      62.662  58.831  -8.234  0.00  0.00    +0.040 A 
ATOM      3  C4  UNL     1      63.220  59.961  -8.832  0.00  0.00    +0.005 A 
ATOM      4  C5  UNL     1      62.967  60.259 -10.184  0.00  0.00    +0.018 A 
ATOM      5  C21 UNL     1      62.135  59.389 -10.917  0.00  0.00    +0.041 A 
ATOM      6  C22 UNL     1      61.588  58.234 -10.325  0.00  0.00    +0.172 A 
ENDROOT
BRANCH   4   7
ATOM      7  C6  UNL     1      63.570  61.453 -10.856  0.00  0.00    +0.079 C 
ATOM      8  N1  UNL     1      64.764  61.818 -10.503  0.00  0.00    -0.172 NA
ATOM      9  N2  UNL     1      65.449  62.942 -11.001  0.00  0.00    -0.222 N 
ATOM     10  C14 UNL     1      64.977  63.638 -12.009  0.00  0.00    +0.253 C 
ATOM     11  O2  UNL     1      65.738  64.679 -12.548  0.00  0.00    -0.271 OA
ATOM     12  C15 UNL     1      63.644  63.298 -12.654  0.00  0.00    +0.091 C 
ATOM     13  C16 UNL     1      62.883  64.611 -13.036  0.00  0.00    +0.035 C 
ATOM     14  C17 UNL     1      61.385  64.469 -13.017  0.00  0.00    -0.030 C 
ATOM     15  C18 UNL     1      60.796  63.781 -12.035  0.00  0.00    -0.030 C 
ATOM     16  C19 UNL     1      61.649  63.046 -11.045  0.00  0.00    +0.032 C 
ATOM     17  C20 UNL     1      62.770  62.311 -11.810  0.00  0.00    +0.056 C 
BRANCH   9  18
ATOM     18  C7  UNL     1      66.753  63.237 -10.364  0.00  0.00    +0.108 C 
ATOM     19  C8  UNL     1      66.913  62.436  -9.052  0.00  0.00    +0.024 C 
ATOM     20  C9  UNL     1      67.976  63.012  -8.108  0.00  0.00    +0.002 C 
ATOM     21  C10 UNL     1      69.380  63.079  -8.729  0.00  0.00    +0.000 C 
ATOM     22  C11 UNL     1      69.530  64.256  -9.708  0.00  0.00    +0.000 C 
ATOM     23  C12 UNL     1      69.119  63.947 -11.160  0.00  0.00    +0.002 C 
ATOM     24  C13 UNL     1      67.924  62.992 -11.347  0.00  0.00    +0.024 C 
ENDBRANCH   9  18
ENDBRANCH   4   7
BRANCH   1  26
ATOM     25  C1  UNL     1      60.190  56.820  -7.483  0.00  0.00    +0.253 C 
ATOM     26  O1  UNL     1      61.273  56.808  -8.406  0.00  0.00    -0.468 OA
ENDBRANCH   1  26
BRANCH   6  27
ATOM     27  O3  UNL     1      60.792  57.330 -11.046  0.00  0.00    -0.472 OA
BRANCH  27  28
ATOM     28  C23 UNL     1      61.296  56.332 -11.931  0.00  0.00    +0.206 C 
BRANCH  28  29
ATOM     29  C24 UNL     1      62.610  55.766 -11.391  0.00  0.00    +0.051 C 
BRANCH  29  30
ATOM     30  C25 UNL     1      63.806  56.628 -11.820  0.00  0.00    +0.051 C 
BRANCH  30  31
ATOM     31  C26 UNL     1      64.914  56.621 -10.768  0.00  0.00    +0.206 C 
BRANCH  31  32
ATOM     32  O4  UNL     1      65.442  55.305 -10.614  0.00  0.00    -0.475 OA
BRANCH  32  33
ATOM     33  C27 UNL     1      66.018  54.561 -11.656  0.00  0.00    +0.139 A 
ATOM     34  C28 UNL     1      66.991  55.100 -12.519  0.00  0.00    +0.037 A 
ATOM     35  C29 UNL     1      67.540  54.320 -13.540  0.00  0.00    +0.006 A 
ATOM     36  C30 UNL     1      67.137  52.983 -13.718  0.00  0.00    +0.040 A 
ATOM     37  C32 UNL     1      66.163  52.451 -12.852  0.00  0.00    +0.006 A 
ATOM     38  C33 UNL     1      65.609  53.237 -11.836  0.00  0.00    +0.037 A 
BRANCH  36  39
ATOM     39  C31 UNL     1      67.735  52.151 -14.796  0.00  0.00    +0.208 A 
ATOM     40  N3  UNL     1      68.463  51.028 -14.602  0.00  0.00    -0.106 NA
ATOM     41  N4  UNL     1      68.787  50.596 -15.810  0.00  0.00    -0.021 NA
ATOM     42  N5  UNL     1      68.286  51.412 -16.720  0.00  0.00    -0.021 NA
ATOM     43  N6  UNL     1      67.625  52.390 -16.122  0.00  0.00    -0.106 NA
ENDBRANCH  36  39
ENDBRANCH  32  33
ENDBRANCH  31  32
ENDBRANCH  30  31
ENDBRANCH  29  30
ENDBRANCH  28  29
ENDBRANCH  27  28
ENDBRANCH   6  27
TORSDOF 11
ENDMDL
MODEL 8
REMARK VINA RESULT:      -5.8      4.913      8.267
REMARK  Name = ./data/4u7t_site_bc02/pdb/l1c1.pdb
REMARK  11 active torsions:
REMARK  status: ('A' for Active; 'I' for Inactive)
REMARK    1  A    between atoms: O1_2  and  C2_3
REMARK    2  A    between atoms: C5_6  and  C6_7
REMARK    3  A    between atoms: N2_9  and  C7_10
REMARK    4  A    between atoms: C22_26  and  O3_27
REMARK    5  A    between atoms: O3_27  and  C23_28
REMARK    6  A    between atoms: C23_28  and  C24_29
REMARK    7  A    between atoms: C24_29  and  C25_30
REMARK    8  A    between atoms: C25_30  and  C26_31
REMARK    9  A    between atoms: C26_31  and  O4_32
REMARK   10  A    between atoms: O4_32  and  C27_33
REMARK   11  A    between atoms: C30_36  and  C31_37
REMARK                            x       y       z     vdW  Elec       q    Type
REMARK                         _______ _______ _______ _____ _____    ______ ____
ROOT
ATOM      1  C2  UNL     1      62.657  58.574  -8.116  0.00  0.00    +0.172 A 
ATOM      2  C3  UNL     1      63.069  59.815  -7.601  0.00  0.00    +0.040 A 
ATOM      3  C4  UNL     1      63.450  60.849  -8.458  0.00  0.00    +0.005 A 
ATOM      4  C5  UNL     1      63.416  60.677  -9.854  0.00  0.00    +0.018 A 
ATOM      5  C21 UNL     1      62.986  59.435 -10.364  0.00  0.00    +0.041 A 
ATOM      6  C22 UNL     1      62.624  58.380  -9.504  0.00  0.00    +0.172 A 
ENDROOT
BRANCH   4   7
ATOM      7  C6  UNL     1      63.837  61.762 -10.794  0.00  0.00    +0.079 C 
ATOM      8  N1  UNL     1      65.057  62.199 -10.719  0.00  0.00    -0.172 NA
ATOM      9  N2  UNL     1      65.594  63.243 -11.495  0.00  0.00    -0.222 N 
ATOM     10  C14 UNL     1      64.923  63.765 -12.495  0.00  0.00    +0.253 C 
ATOM     11  O2  UNL     1      65.531  64.723 -13.313  0.00  0.00    -0.271 OA
ATOM     12  C15 UNL     1      63.514  63.305 -12.833  0.00  0.00    +0.091 C 
ATOM     13  C16 UNL     1      62.641  64.528 -13.267  0.00  0.00    +0.035 C 
ATOM     14  C17 UNL     1      61.176  64.364 -12.959  0.00  0.00    -0.030 C 
ATOM     15  C18 UNL     1      60.798  63.828 -11.795  0.00  0.00    -0.030 C 
ATOM     16  C19 UNL     1      61.843  63.271 -10.875  0.00  0.00    +0.032 C 
ATOM     17  C20 UNL     1      62.846  62.446 -11.708  0.00  0.00    +0.056 C 
BRANCH   9  18
ATOM     18  C7  UNL     1      66.973  63.658 -11.153  0.00  0.00    +0.108 C 
ATOM     19  C8  UNL     1      67.306  63.292  -9.689  0.00  0.00    +0.024 C 
ATOM     20  C9  UNL     1      68.490  64.080  -9.114  0.00  0.00    +0.002 C 
ATOM     21  C10 UNL     1      69.797  63.885  -9.898  0.00  0.00    +0.000 C 
ATOM     22  C11 UNL     1      69.820  64.695 -11.206  0.00  0.00    +0.000 C 
ATOM     23  C12 UNL     1      69.214  63.974 -12.425  0.00  0.00    +0.002 C 
ATOM     24  C13 UNL     1      68.000  63.066 -12.151  0.00  0.00    +0.024 C 
ENDBRANCH   9  18
ENDBRANCH   4   7
BRANCH   1  26
ATOM     25  C1  UNL     1      60.966  57.333  -6.752  0.00  0.00    +0.253 C 
ATOM     26  O1  UNL     1      62.275  57.510  -7.283  0.00  0.00    -0.468 OA
ENDBRANCH   1  26
BRANCH   6  27
ATOM     27  O3  UNL     1      62.234  57.122  -9.989  0.00  0.00    -0.472 OA
BRANCH  27  28
ATOM     28  C23 UNL     1      61.132  56.897 -10.867  0.00  0.00    +0.206 C 
BRANCH  28  29
ATOM     29  C24 UNL     1      61.227  55.500 -11.481  0.00  0.00    +0.051 C 
BRANCH  29  30
ATOM     30  C25 UNL     1      61.626  55.569 -12.963  0.00  0.00    +0.051 C 
BRANCH  30  31
ATOM     31  C26 UNL     1      63.074  55.132 -13.178  0.00  0.00    +0.206 C 
BRANCH  31  32
ATOM     32  O4  UNL     1      63.749  55.019 -11.927  0.00  0.00    -0.475 OA
BRANCH  32  33
ATOM     33  C27 UNL     1      65.104  55.329 -11.732  0.00  0.00    +0.139 A 
ATOM     34  C28 UNL     1      65.565  56.013 -10.592  0.00  0.00    +0.037 A 
ATOM     35  C29 UNL     1      66.924  56.296 -10.439  0.00  0.00    +0.006 A 
ATOM     36  C30 UNL     1      67.856  55.896 -11.415  0.00  0.00    +0.040 A 
ATOM     37  C32 UNL     1      67.388  55.214 -12.554  0.00  0.00    +0.006 A 
ATOM     38  C33 UNL     1      66.025  54.939 -12.709  0.00  0.00    +0.037 A 
BRANCH  36  39
ATOM     39  C31 UNL     1      69.304  56.186 -11.242  0.00  0.00    +0.208 A 
ATOM     40  N3  UNL     1      70.197  56.330 -12.247  0.00  0.00    -0.106 NA
ATOM     41  N4  UNL     1      71.356  56.589 -11.665  0.00  0.00    -0.021 NA
ATOM     42  N5  UNL     1      71.198  56.605 -10.353  0.00  0.00    -0.021 NA
ATOM     43  N6  UNL     1      69.933  56.358 -10.057  0.00  0.00    -0.106 NA
ENDBRANCH  36  39
ENDBRANCH  32  33
ENDBRANCH  31  32
ENDBRANCH  30  31
ENDBRANCH  29  30
ENDBRANCH  28  29
ENDBRANCH  27  28
ENDBRANCH   6  27
TORSDOF 11
ENDMDL
MODEL 9
REMARK VINA RESULT:      -5.7      4.465      8.493
REMARK  Name = ./data/4u7t_site_bc02/pdb/l1c1.pdb
REMARK  11 active torsions:
REMARK  status: ('A' for Active; 'I' for Inactive)
REMARK    1  A    between atoms: O1_2  and  C2_3
REMARK    2  A    between atoms: C5_6  and  C6_7
REMARK    3  A    between atoms: N2_9  and  C7_10
REMARK    4  A    between atoms: C22_26  and  O3_27
REMARK    5  A    between atoms: O3_27  and  C23_28
REMARK    6  A    between atoms: C23_28  and  C24_29
REMARK    7  A    between atoms: C24_29  and  C25_30
REMARK    8  A    between atoms: C25_30  and  C26_31
REMARK    9  A    between atoms: C26_31  and  O4_32
REMARK   10  A    between atoms: O4_32  and  C27_33
REMARK   11  A    between atoms: C30_36  and  C31_37
REMARK                            x       y       z     vdW  Elec       q    Type
REMARK                         _______ _______ _______ _____ _____    ______ ____
ROOT
ATOM      1  C2  UNL     1      62.484  62.416 -11.261  0.00  0.00    +0.172 A 
ATOM      2  C3  UNL     1      62.276  61.301 -12.091  0.00  0.00    +0.040 A 
ATOM      3  C4  UNL     1      62.480  60.008 -11.607  0.00  0.00    +0.005 A 
ATOM      4  C5  UNL     1      62.882  59.792 -10.276  0.00  0.00    +0.018 A 
ATOM      5  C21 UNL     1      63.072  60.914  -9.444  0.00  0.00    +0.041 A 
ATOM      6  C22 UNL     1      62.892  62.222  -9.934  0.00  0.00    +0.172 A 
ENDROOT
BRANCH   4   7
ATOM      7  C6  UNL     1      63.127  58.418  -9.737  0.00  0.00    +0.079 C 
ATOM      8  N1  UNL     1      63.941  57.641 -10.384  0.00  0.00    -0.172 NA
ATOM      9  N2  UNL     1      64.239  56.310 -10.039  0.00  0.00    -0.222 N 
ATOM     10  C14 UNL     1      63.822  55.788  -8.909  0.00  0.00    +0.253 C 
ATOM     11  O2  UNL     1      64.231  54.501  -8.547  0.00  0.00    -0.271 OA
ATOM     12  C15 UNL     1      62.954  56.576  -7.942  0.00  0.00    +0.091 C 
ATOM     13  C16 UNL     1      61.875  55.640  -7.305  0.00  0.00    +0.035 C 
ATOM     14  C17 UNL     1      60.605  56.353  -6.923  0.00  0.00    -0.030 C 
ATOM     15  C18 UNL     1      60.091  57.277  -7.740  0.00  0.00    -0.030 C 
ATOM     16  C19 UNL     1      60.864  57.686  -8.957  0.00  0.00    +0.032 C 
ATOM     17  C20 UNL     1      62.343  57.877  -8.563  0.00  0.00    +0.056 C 
BRANCH   9  18
ATOM     18  C7  UNL     1      65.101  55.573 -10.991  0.00  0.00    +0.108 C 
ATOM     19  C8  UNL     1      64.603  55.770 -12.441  0.00  0.00    +0.024 C 
ATOM     20  C9  UNL     1      65.116  54.701 -13.415  0.00  0.00    +0.002 C 
ATOM     21  C10 UNL     1      66.649  54.637 -13.507  0.00  0.00    +0.000 C 
ATOM     22  C11 UNL     1      67.277  53.919 -12.300  0.00  0.00    +0.000 C 
ATOM     23  C12 UNL     1      67.585  54.828 -11.094  0.00  0.00    +0.002 C 
ATOM     24  C13 UNL     1      66.589  55.971 -10.824  0.00  0.00    +0.024 C 
ENDBRANCH   9  18
ENDBRANCH   4   7
BRANCH   1  26
ATOM     25  C1  UNL     1      61.215  64.150 -12.545  0.00  0.00    +0.253 C 
ATOM     26  O1  UNL     1      62.295  63.731 -11.718  0.00  0.00    -0.468 OA
ENDBRANCH   1  26
BRANCH   6  27
ATOM     27  O3  UNL     1      63.116  63.356  -9.137  0.00  0.00    -0.472 OA
BRANCH  27  28
ATOM     28  C23 UNL     1      64.369  64.027  -9.015  0.00  0.00    +0.206 C 
BRANCH  28  29
ATOM     29  C24 UNL     1      65.250  63.312  -7.989  0.00  0.00    +0.051 C 
BRANCH  29  30
ATOM     30  C25 UNL     1      66.505  62.720  -8.649  0.00  0.00    +0.051 C 
BRANCH  30  31
ATOM     31  C26 UNL     1      67.478  63.812  -9.091  0.00  0.00    +0.206 C 
BRANCH  31  32
ATOM     32  O4  UNL     1      67.806  63.655 -10.470  0.00  0.00    -0.475 OA
BRANCH  32  33
ATOM     33  C27 UNL     1      67.036  64.168 -11.525  0.00  0.00    +0.139 A 
ATOM     34  C28 UNL     1      66.081  63.392 -12.209  0.00  0.00    +0.037 A 
ATOM     35  C29 UNL     1      65.334  63.947 -13.251  0.00  0.00    +0.006 A 
ATOM     36  C30 UNL     1      65.517  65.290 -13.630  0.00  0.00    +0.040 A 
ATOM     37  C32 UNL     1      66.474  66.060 -12.943  0.00  0.00    +0.006 A 
ATOM     38  C33 UNL     1      67.227  65.500 -11.905  0.00  0.00    +0.037 A 
BRANCH  36  39
ATOM     39  C31 UNL     1      64.710  65.883 -14.729  0.00  0.00    +0.208 A 
ATOM     40  N3  UNL     1      63.614  66.657 -14.563  0.00  0.00    -0.106 NA
ATOM     41  N4  UNL     1      63.214  66.980 -15.781  0.00  0.00    -0.021 NA
ATOM     42  N5  UNL     1      64.020  66.432 -16.672  0.00  0.00    -0.021 NA
ATOM     43  N6  UNL     1      64.963  65.743 -16.050  0.00  0.00    -0.106 NA
ENDBRANCH  36  39
ENDBRANCH  32  33
ENDBRANCH  31  32
ENDBRANCH  30  31
ENDBRANCH  29  30
ENDBRANCH  28  29
ENDBRANCH  27  28
ENDBRANCH   6  27
TORSDOF 11
ENDMDL
