MODEL 1
REMARK VINA RESULT:      -3.3      0.000      0.000
REMARK  Name = ./data/4u7t_site_bc02/pdb/l1c2.pdb
REMARK  11 active torsions:
REMARK  status: ('A' for Active; 'I' for Inactive)
REMARK    1  A    between atoms: O1_2  and  C2_3
REMARK    2  A    between atoms: C5_6  and  C6_7
REMARK    3  A    between atoms: N2_9  and  C7_10
REMARK    4  A    between atoms: C22_26  and  O3_27
REMARK    5  A    between atoms: O3_27  and  C23_28
REMARK    6  A    between atoms: C23_28  and  C24_29
REMARK    7  A    between atoms: C24_29  and  C25_30
REMARK    8  A    between atoms: C25_30  and  C26_31
REMARK    9  A    between atoms: C26_31  and  O4_32
REMARK   10  A    between atoms: O4_32  and  C27_33
REMARK   11  A    between atoms: C30_36  and  C31_37
REMARK                            x       y       z     vdW  Elec       q    Type
REMARK                         _______ _______ _______ _____ _____    ______ ____
ROOT
ATOM      1  C2  UNL     1      19.845  58.557  -5.667  0.00  0.00    +0.172 A 
ATOM      2  C3  UNL     1      19.823  59.767  -6.388  0.00  0.00    +0.040 A 
ATOM      3  C4  UNL     1      19.801  60.991  -5.716  0.00  0.00    +0.005 A 
ATOM      4  C5  UNL     1      19.818  61.027  -4.316  0.00  0.00    +0.018 A 
ATOM      5  C21 UNL     1      19.802  59.823  -3.595  0.00  0.00    +0.041 A 
ATOM      6  C22 UNL     1      19.834  58.584  -4.263  0.00  0.00    +0.172 A 
ENDROOT
BRANCH   4   7
ATOM      7  C6  UNL     1      19.833  62.305  -3.580  0.00  0.00    +0.079 C 
ATOM      8  N1  UNL     1      20.586  62.387  -2.521  0.00  0.00    -0.172 NA
ATOM      9  N2  UNL     1      20.855  63.601  -1.845  0.00  0.00    -0.222 N 
ATOM     10  C14 UNL     1      20.142  64.678  -2.108  0.00  0.00    +0.253 C 
ATOM     11  O2  UNL     1      20.407  65.894  -1.476  0.00  0.00    -0.271 OA
ATOM     12  C15 UNL     1      18.995  64.599  -3.086  0.00  0.00    +0.091 C 
ATOM     13  C16 UNL     1      17.707  64.190  -2.345  0.00  0.00    +0.035 C 
ATOM     14  C17 UNL     1      16.607  63.738  -3.267  0.00  0.00    -0.030 C 
ATOM     15  C18 UNL     1      16.838  63.314  -4.517  0.00  0.00    -0.030 C 
ATOM     16  C19 UNL     1      18.170  63.479  -5.196  0.00  0.00    +0.032 C 
ATOM     17  C20 UNL     1      19.345  63.601  -4.203  0.00  0.00    +0.056 C 
BRANCH   9  18
ATOM     18  C7  UNL     1      22.007  63.599  -0.920  0.00  0.00    +0.108 C 
ATOM     19  C8  UNL     1      23.284  63.070  -1.610  0.00  0.00    +0.024 C 
ATOM     20  C9  UNL     1      24.535  63.122  -0.715  0.00  0.00    +0.002 C 
ATOM     21  C10 UNL     1      24.536  62.007   0.346  0.00  0.00    +0.000 C 
ATOM     22  C11 UNL     1      23.844  62.379   1.673  0.00  0.00    +0.000 C 
ATOM     23  C12 UNL     1      22.585  63.260   1.560  0.00  0.00    +0.002 C 
ATOM     24  C13 UNL     1      21.647  62.875   0.400  0.00  0.00    +0.024 C 
ENDBRANCH   9  18
ENDBRANCH   4   7
BRANCH   1  26
ATOM     25  C1  UNL     1      19.914  57.130  -7.722  0.00  0.00    +0.253 C 
ATOM     26  O1  UNL     1      19.890  57.308  -6.308  0.00  0.00    -0.468 OA
ENDBRANCH   1  26
BRANCH   6  27
ATOM     27  O3  UNL     1      19.872  57.362  -3.569  0.00  0.00    -0.472 OA
BRANCH  27  28
ATOM     28  C23 UNL     1      19.674  57.216  -2.163  0.00  0.00    +0.206 C 
BRANCH  28  29
ATOM     29  C24 UNL     1      20.621  58.144  -1.401  0.00  0.00    +0.051 C 
BRANCH  29  30
ATOM     30  C25 UNL     1      20.046  58.511  -0.025  0.00  0.00    +0.051 C 
BRANCH  30  31
ATOM     31  C26 UNL     1      19.558  57.265   0.724  0.00  0.00    +0.206 C 
BRANCH  31  32
ATOM     32  O4  UNL     1      19.284  57.576   2.092  0.00  0.00    -0.475 OA
BRANCH  32  33
ATOM     33  C27 UNL     1      18.002  57.651   2.667  0.00  0.00    +0.139 A 
ATOM     34  C28 UNL     1      16.820  57.712   1.902  0.00  0.00    +0.037 A 
ATOM     35  C29 UNL     1      15.576  57.818   2.530  0.00  0.00    +0.006 A 
ATOM     36  C30 UNL     1      15.486  57.848   3.931  0.00  0.00    +0.040 A 
ATOM     37  C32 UNL     1      16.665  57.772   4.691  0.00  0.00    +0.006 A 
ATOM     38  C33 UNL     1      17.909  57.675   4.064  0.00  0.00    +0.037 A 
BRANCH  36  39
ATOM     39  C31 UNL     1      14.169  57.956   4.596  0.00  0.00    +0.208 A 
ATOM     40  N3  UNL     1      13.870  58.817   5.591  0.00  0.00    -0.106 NA
ATOM     41  N4  UNL     1      12.607  58.580   5.903  0.00  0.00    -0.021 NA
ATOM     42  N5  UNL     1      12.134  57.616   5.135  0.00  0.00    -0.021 NA
ATOM     43  N6  UNL     1      13.082  57.205   4.310  0.00  0.00    -0.106 NA
ENDBRANCH  36  39
ENDBRANCH  32  33
ENDBRANCH  31  32
ENDBRANCH  30  31
ENDBRANCH  29  30
ENDBRANCH  28  29
ENDBRANCH  27  28
ENDBRANCH   6  27
TORSDOF 11
ENDMDL
