MODEL 1
REMARK VINA RESULT:      -9.3      0.000      0.000
REMARK  Name = ./data/interface_1/pdb/l1c2.pdb
REMARK  11 active torsions:
REMARK  status: ('A' for Active; 'I' for Inactive)
REMARK    1  A    between atoms: O1_2  and  C2_3
REMARK    2  A    between atoms: C5_6  and  C6_7
REMARK    3  A    between atoms: N2_9  and  C7_10
REMARK    4  A    between atoms: C22_26  and  O3_27
REMARK    5  A    between atoms: O3_27  and  C23_28
REMARK    6  A    between atoms: C23_28  and  C24_29
REMARK    7  A    between atoms: C24_29  and  C25_30
REMARK    8  A    between atoms: C25_30  and  C26_31
REMARK    9  A    between atoms: C26_31  and  O4_32
REMARK   10  A    between atoms: O4_32  and  C27_33
REMARK   11  A    between atoms: C30_36  and  C31_37
REMARK                            x       y       z     vdW  Elec       q    Type
REMARK                         _______ _______ _______ _____ _____    ______ ____
ROOT
ATOM      1  C2  UNL     1      39.791  74.033  -5.525  0.00  0.00    +0.172 A 
ATOM      2  C3  UNL     1      39.257  72.982  -6.288  0.00  0.00    +0.040 A 
ATOM      3  C4  UNL     1      39.542  72.879  -7.649  0.00  0.00    +0.005 A 
ATOM      4  C5  UNL     1      40.387  73.811  -8.281  0.00  0.00    +0.018 A 
ATOM      5  C21 UNL     1      40.926  74.857  -7.508  0.00  0.00    +0.041 A 
ATOM      6  C22 UNL     1      40.614  74.983  -6.141  0.00  0.00    +0.172 A 
ENDROOT
BRANCH   4   7
ATOM      7  C6  UNL     1      40.702  73.660  -9.731  0.00  0.00    +0.077 C 
ATOM      8  N1  UNL     1      40.205  72.639 -10.375  0.00  0.00    -0.180 NA
ATOM      9  N2  UNL     1      40.450  72.390 -11.742  0.00  0.00    -0.183 N 
ATOM     10  C14 UNL     1      41.011  73.439 -12.555  0.00  0.00    +0.244 C 
ATOM     11  O2  UNL     1      41.233  73.260 -13.785  0.00  0.00    -0.273 OA
ATOM     12  C15 UNL     1      41.242  74.780 -11.913  0.00  0.00    +0.089 C 
ATOM     13  C16 UNL     1      42.256  75.667 -12.660  0.00  0.00    +0.035 C 
ATOM     14  C17 UNL     1      43.682  75.235 -12.452  0.00  0.00    -0.030 C 
ATOM     15  C18 UNL     1      44.075  74.570 -11.355  0.00  0.00    -0.030 C 
ATOM     16  C19 UNL     1      43.106  73.979 -10.364  0.00  0.00    +0.032 C 
ATOM     17  C20 UNL     1      41.681  74.581 -10.448  0.00  0.00    +0.055 C 
BRANCH   9  18
ATOM     18  C7  UNL     1      40.084  71.079 -12.299  0.00  0.00    +0.099 C 
ATOM     19  C8  UNL     1      39.222  70.288 -11.283  0.00  0.00    +0.022 C 
ATOM     20  C9  UNL     1      40.004  69.372 -10.324  0.00  0.00    +0.002 C 
ATOM     21  C10 UNL     1      40.256  67.979 -10.926  0.00  0.00    +0.000 C 
ATOM     22  C11 UNL     1      41.386  67.954 -11.962  0.00  0.00    +0.000 C 
ATOM     23  C12 UNL     1      41.143  68.885 -13.160  0.00  0.00    +0.002 C 
ATOM     24  C13 UNL     1      41.358  70.364 -12.798  0.00  0.00    +0.022 C 
ENDBRANCH   9  18
ENDBRANCH   4   7
BRANCH   1  26
ATOM     25  C1  UNL     1      38.385  74.863  -3.628  0.00  0.00    +0.253 C 
ATOM     26  O1  UNL     1      39.515  74.178  -4.155  0.00  0.00    -0.468 OA
ENDBRANCH   1  26
BRANCH   6  27
ATOM     27  O3  UNL     1      41.098  76.047  -5.363  0.00  0.00    -0.472 OA
BRANCH  27  28
ATOM     28  C23 UNL     1      42.435  76.553  -5.398  0.00  0.00    +0.206 C 
BRANCH  28  29
ATOM     29  C24 UNL     1      43.437  75.522  -4.857  0.00  0.00    +0.051 C 
BRANCH  29  30
ATOM     30  C25 UNL     1      44.360  74.989  -5.962  0.00  0.00    +0.051 C 
BRANCH  30  31
ATOM     31  C26 UNL     1      45.834  74.976  -5.546  0.00  0.00    +0.206 C 
BRANCH  31  32
ATOM     32  O4  UNL     1      46.053  74.063  -4.466  0.00  0.00    -0.475 OA
BRANCH  32  33
ATOM     33  C27 UNL     1      45.826  72.676  -4.479  0.00  0.00    +0.139 A 
ATOM     34  C28 UNL     1      45.091  72.004  -3.486  0.00  0.00    +0.037 A 
ATOM     35  C29 UNL     1      44.935  70.615  -3.540  0.00  0.00    +0.006 A 
ATOM     36  C30 UNL     1      45.510  69.865  -4.582  0.00  0.00    +0.040 A 
ATOM     37  C32 UNL     1      46.221  70.547  -5.586  0.00  0.00    +0.006 A 
ATOM     38  C33 UNL     1      46.377  71.935  -5.528  0.00  0.00    +0.037 A 
BRANCH  36  39
ATOM     39  C31 UNL     1      45.376  68.382  -4.618  0.00  0.00    +0.208 A 
ATOM     40  N3  UNL     1      45.663  67.596  -5.675  0.00  0.00    -0.106 NA
ATOM     41  N4  UNL     1      45.392  66.356  -5.299  0.00  0.00    -0.021 NA
ATOM     42  N5  UNL     1      44.951  66.365  -4.050  0.00  0.00    -0.021 NA
ATOM     43  N6  UNL     1      44.935  67.610  -3.604  0.00  0.00    -0.106 NA
ENDBRANCH  36  39
ENDBRANCH  32  33
ENDBRANCH  31  32
ENDBRANCH  30  31
ENDBRANCH  29  30
ENDBRANCH  28  29
ENDBRANCH  27  28
ENDBRANCH   6  27
TORSDOF 11
ENDMDL
MODEL 2
REMARK VINA RESULT:      -9.2      0.909      1.009
REMARK  Name = ./data/interface_1/pdb/l1c2.pdb
REMARK  11 active torsions:
REMARK  status: ('A' for Active; 'I' for Inactive)
REMARK    1  A    between atoms: O1_2  and  C2_3
REMARK    2  A    between atoms: C5_6  and  C6_7
REMARK    3  A    between atoms: N2_9  and  C7_10
REMARK    4  A    between atoms: C22_26  and  O3_27
REMARK    5  A    between atoms: O3_27  and  C23_28
REMARK    6  A    between atoms: C23_28  and  C24_29
REMARK    7  A    between atoms: C24_29  and  C25_30
REMARK    8  A    between atoms: C25_30  and  C26_31
REMARK    9  A    between atoms: C26_31  and  O4_32
REMARK   10  A    between atoms: O4_32  and  C27_33
REMARK   11  A    between atoms: C30_36  and  C31_37
REMARK                            x       y       z     vdW  Elec       q    Type
REMARK                         _______ _______ _______ _____ _____    ______ ____
ROOT
ATOM      1  C2  UNL     1      39.732  74.204  -5.602  0.00  0.00    +0.172 A 
ATOM      2  C3  UNL     1      39.308  73.081  -6.331  0.00  0.00    +0.040 A 
ATOM      3  C4  UNL     1      39.622  72.955  -7.683  0.00  0.00    +0.005 A 
ATOM      4  C5  UNL     1      40.386  73.938  -8.341  0.00  0.00    +0.018 A 
ATOM      5  C21 UNL     1      40.816  75.057  -7.602  0.00  0.00    +0.041 A 
ATOM      6  C22 UNL     1      40.473  75.203  -6.245  0.00  0.00    +0.172 A 
ENDROOT
BRANCH   4   7
ATOM      7  C6  UNL     1      40.736  73.762  -9.780  0.00  0.00    +0.077 C 
ATOM      8  N1  UNL     1      40.255  72.732 -10.419  0.00  0.00    -0.180 NA
ATOM      9  N2  UNL     1      40.532  72.461 -11.775  0.00  0.00    -0.183 N 
ATOM     10  C14 UNL     1      41.112  73.496 -12.593  0.00  0.00    +0.244 C 
ATOM     11  O2  UNL     1      41.363  73.298 -13.814  0.00  0.00    -0.273 OA
ATOM     12  C15 UNL     1      41.327  74.848 -11.966  0.00  0.00    +0.089 C 
ATOM     13  C16 UNL     1      42.359  75.723 -12.704  0.00  0.00    +0.035 C 
ATOM     14  C17 UNL     1      43.779  75.295 -12.455  0.00  0.00    -0.030 C 
ATOM     15  C18 UNL     1      44.146  74.648 -11.339  0.00  0.00    -0.030 C 
ATOM     16  C19 UNL     1      43.154  74.073 -10.361  0.00  0.00    +0.032 C 
ATOM     17  C20 UNL     1      41.731  74.673 -10.489  0.00  0.00    +0.055 C 
BRANCH   9  18
ATOM     18  C7  UNL     1      40.180  71.141 -12.320  0.00  0.00    +0.099 C 
ATOM     19  C8  UNL     1      38.977  70.546 -11.545  0.00  0.00    +0.022 C 
ATOM     20  C9  UNL     1      39.340  69.662 -10.337  0.00  0.00    +0.002 C 
ATOM     21  C10 UNL     1      39.579  68.197 -10.739  0.00  0.00    +0.000 C 
ATOM     22  C11 UNL     1      40.942  67.956 -11.398  0.00  0.00    +0.000 C 
ATOM     23  C12 UNL     1      41.160  68.777 -12.677  0.00  0.00    +0.002 C 
ATOM     24  C13 UNL     1      41.445  70.257 -12.375  0.00  0.00    +0.022 C 
ENDBRANCH   9  18
ENDBRANCH   4   7
BRANCH   1  26
ATOM     25  C1  UNL     1      38.164  74.817  -3.750  0.00  0.00    +0.253 C 
ATOM     26  O1  UNL     1      39.423  74.374  -4.243  0.00  0.00    -0.468 OA
ENDBRANCH   1  26
BRANCH   6  27
ATOM     27  O3  UNL     1      40.846  76.335  -5.502  0.00  0.00    -0.472 OA
BRANCH  27  28
ATOM     28  C23 UNL     1      42.175  76.635  -5.066  0.00  0.00    +0.206 C 
BRANCH  28  29
ATOM     29  C24 UNL     1      42.444  76.069  -3.664  0.00  0.00    +0.051 C 
BRANCH  29  30
ATOM     30  C25 UNL     1      43.027  74.650  -3.724  0.00  0.00    +0.051 C 
BRANCH  30  31
ATOM     31  C26 UNL     1      43.784  74.267  -2.448  0.00  0.00    +0.206 C 
BRANCH  31  32
ATOM     32  O4  UNL     1      44.940  73.481  -2.755  0.00  0.00    -0.475 OA
BRANCH  32  33
ATOM     33  C27 UNL     1      44.961  72.125  -3.125  0.00  0.00    +0.139 A 
ATOM     34  C28 UNL     1      44.532  71.088  -2.278  0.00  0.00    +0.037 A 
ATOM     35  C29 UNL     1      44.616  69.755  -2.695  0.00  0.00    +0.006 A 
ATOM     36  C30 UNL     1      45.130  69.427  -3.963  0.00  0.00    +0.040 A 
ATOM     37  C32 UNL     1      45.531  70.472  -4.815  0.00  0.00    +0.006 A 
ATOM     38  C33 UNL     1      45.449  71.803  -4.394  0.00  0.00    +0.037 A 
BRANCH  36  39
ATOM     39  C31 UNL     1      45.254  68.007  -4.392  0.00  0.00    +0.208 A 
ATOM     40  N3  UNL     1      45.607  67.589  -5.625  0.00  0.00    -0.106 NA
ATOM     41  N4  UNL     1      45.580  66.266  -5.590  0.00  0.00    -0.021 NA
ATOM     42  N5  UNL     1      45.223  65.868  -4.377  0.00  0.00    -0.021 NA
ATOM     43  N6  UNL     1      45.019  66.930  -3.615  0.00  0.00    -0.106 NA
ENDBRANCH  36  39
ENDBRANCH  32  33
ENDBRANCH  31  32
ENDBRANCH  30  31
ENDBRANCH  29  30
ENDBRANCH  28  29
ENDBRANCH  27  28
ENDBRANCH   6  27
TORSDOF 11
ENDMDL
MODEL 3
REMARK VINA RESULT:      -8.9      4.417      7.710
REMARK  Name = ./data/interface_1/pdb/l1c2.pdb
REMARK  11 active torsions:
REMARK  status: ('A' for Active; 'I' for Inactive)
REMARK    1  A    between atoms: O1_2  and  C2_3
REMARK    2  A    between atoms: C5_6  and  C6_7
REMARK    3  A    between atoms: N2_9  and  C7_10
REMARK    4  A    between atoms: C22_26  and  O3_27
REMARK    5  A    between atoms: O3_27  and  C23_28
REMARK    6  A    between atoms: C23_28  and  C24_29
REMARK    7  A    between atoms: C24_29  and  C25_30
REMARK    8  A    between atoms: C25_30  and  C26_31
REMARK    9  A    between atoms: C26_31  and  O4_32
REMARK   10  A    between atoms: O4_32  and  C27_33
REMARK   11  A    between atoms: C30_36  and  C31_37
REMARK                            x       y       z     vdW  Elec       q    Type
REMARK                         _______ _______ _______ _____ _____    ______ ____
ROOT
ATOM      1  C2  UNL     1      40.795  68.303 -12.227  0.00  0.00    +0.172 A 
ATOM      2  C3  UNL     1      41.965  68.848 -12.781  0.00  0.00    +0.040 A 
ATOM      3  C4  UNL     1      41.963  70.138 -13.309  0.00  0.00    +0.005 A 
ATOM      4  C5  UNL     1      40.799  70.928 -13.279  0.00  0.00    +0.018 A 
ATOM      5  C21 UNL     1      39.632  70.380 -12.714  0.00  0.00    +0.041 A 
ATOM      6  C22 UNL     1      39.621  69.066 -12.209  0.00  0.00    +0.172 A 
ENDROOT
BRANCH   4   7
ATOM      7  C6  UNL     1      40.834  72.318 -13.821  0.00  0.00    +0.077 C 
ATOM      8  N1  UNL     1      40.929  73.313 -12.984  0.00  0.00    -0.180 NA
ATOM      9  N2  UNL     1      40.955  74.665 -13.386  0.00  0.00    -0.183 N 
ATOM     10  C14 UNL     1      41.193  74.980 -14.771  0.00  0.00    +0.244 C 
ATOM     11  O2  UNL     1      41.236  76.177 -15.169  0.00  0.00    -0.273 OA
ATOM     12  C15 UNL     1      41.474  73.840 -15.713  0.00  0.00    +0.089 C 
ATOM     13  C16 UNL     1      41.237  74.179 -17.198  0.00  0.00    +0.035 C 
ATOM     14  C17 UNL     1      39.779  74.226 -17.565  0.00  0.00    -0.030 C 
ATOM     15  C18 UNL     1      38.850  73.527 -16.895  0.00  0.00    -0.030 C 
ATOM     16  C19 UNL     1      39.128  72.843 -15.581  0.00  0.00    +0.032 C 
ATOM     17  C20 UNL     1      40.635  72.613 -15.303  0.00  0.00    +0.055 C 
BRANCH   9  18
ATOM     18  C7  UNL     1      40.779  75.710 -12.366  0.00  0.00    +0.099 C 
ATOM     19  C8  UNL     1      41.899  76.774 -12.492  0.00  0.00    +0.022 C 
ATOM     20  C9  UNL     1      43.154  76.517 -11.639  0.00  0.00    +0.002 C 
ATOM     21  C10 UNL     1      43.018  77.087 -10.217  0.00  0.00    +0.000 C 
ATOM     22  C11 UNL     1      42.145  76.229  -9.294  0.00  0.00    +0.000 C 
ATOM     23  C12 UNL     1      40.709  76.041  -9.804  0.00  0.00    +0.002 C 
ATOM     24  C13 UNL     1      40.635  75.051 -10.978  0.00  0.00    +0.022 C 
ENDBRANCH   9  18
ENDBRANCH   4   7
BRANCH   1  26
ATOM     25  C1  UNL     1      41.526  66.555 -10.591  0.00  0.00    +0.253 C 
ATOM     26  O1  UNL     1      40.753  67.002 -11.699  0.00  0.00    -0.468 OA
ENDBRANCH   1  26
BRANCH   6  27
ATOM     27  O3  UNL     1      38.456  68.479 -11.688  0.00  0.00    -0.472 OA
BRANCH  27  28
ATOM     28  C23 UNL     1      37.380  69.190 -11.068  0.00  0.00    +0.206 C 
BRANCH  28  29
ATOM     29  C24 UNL     1      37.234  68.802  -9.589  0.00  0.00    +0.051 C 
BRANCH  29  30
ATOM     30  C25 UNL     1      37.651  69.947  -8.656  0.00  0.00    +0.051 C 
BRANCH  30  31
ATOM     31  C26 UNL     1      39.128  70.325  -8.806  0.00  0.00    +0.206 C 
BRANCH  31  32
ATOM     32  O4  UNL     1      39.289  71.746  -8.862  0.00  0.00    -0.475 OA
BRANCH  32  33
ATOM     33  C27 UNL     1      39.635  72.595  -7.797  0.00  0.00    +0.139 A 
ATOM     34  C28 UNL     1      40.933  73.099  -7.600  0.00  0.00    +0.037 A 
ATOM     35  C29 UNL     1      41.217  73.910  -6.496  0.00  0.00    +0.006 A 
ATOM     36  C30 UNL     1      40.215  74.235  -5.564  0.00  0.00    +0.040 A 
ATOM     37  C32 UNL     1      38.913  73.751  -5.782  0.00  0.00    +0.006 A 
ATOM     38  C33 UNL     1      38.632  72.938  -6.885  0.00  0.00    +0.037 A 
BRANCH  36  39
ATOM     39  C31 UNL     1      40.526  75.067  -4.369  0.00  0.00    +0.208 A 
ATOM     40  N3  UNL     1      40.952  76.346  -4.394  0.00  0.00    -0.106 NA
ATOM     41  N4  UNL     1      41.126  76.704  -3.131  0.00  0.00    -0.021 NA
ATOM     42  N5  UNL     1      40.820  75.685  -2.342  0.00  0.00    -0.021 NA
ATOM     43  N6  UNL     1      40.441  74.659  -3.086  0.00  0.00    -0.106 NA
ENDBRANCH  36  39
ENDBRANCH  32  33
ENDBRANCH  31  32
ENDBRANCH  30  31
ENDBRANCH  29  30
ENDBRANCH  28  29
ENDBRANCH  27  28
ENDBRANCH   6  27
TORSDOF 11
ENDMDL
MODEL 4
REMARK VINA RESULT:      -8.7      4.119      8.791
REMARK  Name = ./data/interface_1/pdb/l1c2.pdb
REMARK  11 active torsions:
REMARK  status: ('A' for Active; 'I' for Inactive)
REMARK    1  A    between atoms: O1_2  and  C2_3
REMARK    2  A    between atoms: C5_6  and  C6_7
REMARK    3  A    between atoms: N2_9  and  C7_10
REMARK    4  A    between atoms: C22_26  and  O3_27
REMARK    5  A    between atoms: O3_27  and  C23_28
REMARK    6  A    between atoms: C23_28  and  C24_29
REMARK    7  A    between atoms: C24_29  and  C25_30
REMARK    8  A    between atoms: C25_30  and  C26_31
REMARK    9  A    between atoms: C26_31  and  O4_32
REMARK   10  A    between atoms: O4_32  and  C27_33
REMARK   11  A    between atoms: C30_36  and  C31_37
REMARK                            x       y       z     vdW  Elec       q    Type
REMARK                         _______ _______ _______ _____ _____    ______ ____
ROOT
ATOM      1  C2  UNL     1      37.804  69.653  -8.982  0.00  0.00    +0.172 A 
ATOM      2  C3  UNL     1      37.099  70.420  -8.039  0.00  0.00    +0.040 A 
ATOM      3  C4  UNL     1      37.654  71.590  -7.523  0.00  0.00    +0.005 A 
ATOM      4  C5  UNL     1      38.917  72.040  -7.951  0.00  0.00    +0.018 A 
ATOM      5  C21 UNL     1      39.613  71.272  -8.903  0.00  0.00    +0.041 A 
ATOM      6  C22 UNL     1      39.071  70.072  -9.402  0.00  0.00    +0.172 A 
ENDROOT
BRANCH   4   7
ATOM      7  C6  UNL     1      39.472  73.313  -7.407  0.00  0.00    +0.077 C 
ATOM      8  N1  UNL     1      40.567  73.792  -7.930  0.00  0.00    -0.180 NA
ATOM      9  N2  UNL     1      41.187  74.978  -7.485  0.00  0.00    -0.183 N 
ATOM     10  C14 UNL     1      40.450  75.875  -6.631  0.00  0.00    +0.244 C 
ATOM     11  O2  UNL     1      40.964  76.952  -6.221  0.00  0.00    -0.273 OA
ATOM     12  C15 UNL     1      39.019  75.529  -6.315  0.00  0.00    +0.089 C 
ATOM     13  C16 UNL     1      38.468  76.228  -5.058  0.00  0.00    +0.035 C 
ATOM     14  C17 UNL     1      38.978  75.626  -3.777  0.00  0.00    -0.030 C 
ATOM     15  C18 UNL     1      39.372  74.347  -3.696  0.00  0.00    -0.030 C 
ATOM     16  C19 UNL     1      39.580  73.475  -4.908  0.00  0.00    +0.032 C 
ATOM     17  C20 UNL     1      38.876  73.999  -6.184  0.00  0.00    +0.055 C 
BRANCH   9  18
ATOM     18  C7  UNL     1      42.552  75.278  -7.941  0.00  0.00    +0.099 C 
ATOM     19  C8  UNL     1      42.550  76.543  -8.837  0.00  0.00    +0.022 C 
ATOM     20  C9  UNL     1      42.381  76.284 -10.346  0.00  0.00    +0.002 C 
ATOM     21  C10 UNL     1      43.724  76.009 -11.043  0.00  0.00    +0.000 C 
ATOM     22  C11 UNL     1      44.262  74.593 -10.802  0.00  0.00    +0.000 C 
ATOM     23  C12 UNL     1      44.490  74.266  -9.318  0.00  0.00    +0.002 C 
ATOM     24  C13 UNL     1      43.171  74.012  -8.570  0.00  0.00    +0.022 C 
ENDBRANCH   9  18
ENDBRANCH   4   7
BRANCH   1  26
ATOM     25  C1  UNL     1      36.580  68.366 -10.746  0.00  0.00    +0.253 C 
ATOM     26  O1  UNL     1      37.285  68.461  -9.514  0.00  0.00    -0.468 OA
ENDBRANCH   1  26
BRANCH   6  27
ATOM     27  O3  UNL     1      39.770  69.264 -10.314  0.00  0.00    -0.472 OA
BRANCH  27  28
ATOM     28  C23 UNL     1      40.698  68.234  -9.962  0.00  0.00    +0.206 C 
BRANCH  28  29
ATOM     29  C24 UNL     1      41.569  67.834 -11.162  0.00  0.00    +0.051 C 
BRANCH  29  30
ATOM     30  C25 UNL     1      40.719  67.460 -12.385  0.00  0.00    +0.051 C 
BRANCH  30  31
ATOM     31  C26 UNL     1      40.828  68.486 -13.517  0.00  0.00    +0.206 C 
BRANCH  31  32
ATOM     32  O4  UNL     1      41.792  69.495 -13.201  0.00  0.00    -0.475 OA
BRANCH  32  33
ATOM     33  C27 UNL     1      41.600  70.887 -13.252  0.00  0.00    +0.139 A 
ATOM     34  C28 UNL     1      41.316  71.669 -12.118  0.00  0.00    +0.037 A 
ATOM     35  C29 UNL     1      41.098  73.045 -12.245  0.00  0.00    +0.006 A 
ATOM     36  C30 UNL     1      41.156  73.671 -13.503  0.00  0.00    +0.040 A 
ATOM     37  C32 UNL     1      41.468  72.887 -14.628  0.00  0.00    +0.006 A 
ATOM     38  C33 UNL     1      41.682  71.512 -14.499  0.00  0.00    +0.037 A 
BRANCH  36  39
ATOM     39  C31 UNL     1      40.887  75.129 -13.642  0.00  0.00    +0.208 A 
ATOM     40  N3  UNL     1      41.221  75.889 -14.705  0.00  0.00    -0.106 NA
ATOM     41  N4  UNL     1      40.822  77.119 -14.421  0.00  0.00    -0.021 NA
ATOM     42  N5  UNL     1      40.256  77.129 -13.223  0.00  0.00    -0.021 NA
ATOM     43  N6  UNL     1      40.282  75.906 -12.721  0.00  0.00    -0.106 NA
ENDBRANCH  36  39
ENDBRANCH  32  33
ENDBRANCH  31  32
ENDBRANCH  30  31
ENDBRANCH  29  30
ENDBRANCH  28  29
ENDBRANCH  27  28
ENDBRANCH   6  27
TORSDOF 11
ENDMDL
MODEL 5
REMARK VINA RESULT:      -8.4      3.841      7.402
REMARK  Name = ./data/interface_1/pdb/l1c2.pdb
REMARK  11 active torsions:
REMARK  status: ('A' for Active; 'I' for Inactive)
REMARK    1  A    between atoms: O1_2  and  C2_3
REMARK    2  A    between atoms: C5_6  and  C6_7
REMARK    3  A    between atoms: N2_9  and  C7_10
REMARK    4  A    between atoms: C22_26  and  O3_27
REMARK    5  A    between atoms: O3_27  and  C23_28
REMARK    6  A    between atoms: C23_28  and  C24_29
REMARK    7  A    between atoms: C24_29  and  C25_30
REMARK    8  A    between atoms: C25_30  and  C26_31
REMARK    9  A    between atoms: C26_31  and  O4_32
REMARK   10  A    between atoms: O4_32  and  C27_33
REMARK   11  A    between atoms: C30_36  and  C31_37
REMARK                            x       y       z     vdW  Elec       q    Type
REMARK                         _______ _______ _______ _____ _____    ______ ____
ROOT
ATOM      1  C2  UNL     1      41.155  68.419 -12.073  0.00  0.00    +0.172 A 
ATOM      2  C3  UNL     1      41.935  68.779 -13.184  0.00  0.00    +0.040 A 
ATOM      3  C4  UNL     1      41.858  70.066 -13.715  0.00  0.00    +0.005 A 
ATOM      4  C5  UNL     1      41.016  71.035 -13.138  0.00  0.00    +0.018 A 
ATOM      5  C21 UNL     1      40.244  70.670 -12.019  0.00  0.00    +0.041 A 
ATOM      6  C22 UNL     1      40.295  69.363 -11.500  0.00  0.00    +0.172 A 
ENDROOT
BRANCH   4   7
ATOM      7  C6  UNL     1      40.977  72.414 -13.707  0.00  0.00    +0.077 C 
ATOM      8  N1  UNL     1      41.058  73.429 -12.891  0.00  0.00    -0.180 NA
ATOM      9  N2  UNL     1      41.017  74.773 -13.318  0.00  0.00    -0.183 N 
ATOM     10  C14 UNL     1      41.196  75.070 -14.716  0.00  0.00    +0.244 C 
ATOM     11  O2  UNL     1      41.179  76.260 -15.136  0.00  0.00    -0.273 OA
ATOM     12  C15 UNL     1      41.494  73.924 -15.646  0.00  0.00    +0.089 C 
ATOM     13  C16 UNL     1      41.195  74.224 -17.127  0.00  0.00    +0.035 C 
ATOM     14  C17 UNL     1      39.725  74.205 -17.448  0.00  0.00    -0.030 C 
ATOM     15  C18 UNL     1      38.848  73.484 -16.735  0.00  0.00    -0.030 C 
ATOM     16  C19 UNL     1      39.195  72.837 -15.419  0.00  0.00    +0.032 C 
ATOM     17  C20 UNL     1      40.718  72.673 -15.186  0.00  0.00    +0.055 C 
BRANCH   9  18
ATOM     18  C7  UNL     1      40.831  75.830 -12.312  0.00  0.00    +0.099 C 
ATOM     19  C8  UNL     1      41.997  76.848 -12.386  0.00  0.00    +0.022 C 
ATOM     20  C9  UNL     1      43.197  76.547 -11.470  0.00  0.00    +0.002 C 
ATOM     21  C10 UNL     1      43.013  77.130 -10.059  0.00  0.00    +0.000 C 
ATOM     22  C11 UNL     1      42.062  76.311  -9.177  0.00  0.00    +0.000 C 
ATOM     23  C12 UNL     1      40.646  76.177  -9.758  0.00  0.00    +0.002 C 
ATOM     24  C13 UNL     1      40.592  75.184 -10.930  0.00  0.00    +0.022 C 
ENDBRANCH   9  18
ENDBRANCH   4   7
BRANCH   1  26
ATOM     25  C1  UNL     1      42.214  66.171 -11.775  0.00  0.00    +0.253 C 
ATOM     26  O1  UNL     1      41.195  67.129 -11.518  0.00  0.00    -0.468 OA
ENDBRANCH   1  26
BRANCH   6  27
ATOM     27  O3  UNL     1      39.496  68.961 -10.417  0.00  0.00    -0.472 OA
BRANCH  27  28
ATOM     28  C23 UNL     1      38.091  68.704 -10.478  0.00  0.00    +0.206 C 
BRANCH  28  29
ATOM     29  C24 UNL     1      37.366  69.268  -9.247  0.00  0.00    +0.051 C 
BRANCH  29  30
ATOM     30  C25 UNL     1      38.182  70.373  -8.561  0.00  0.00    +0.051 C 
BRANCH  30  31
ATOM     31  C26 UNL     1      37.339  71.225  -7.607  0.00  0.00    +0.206 C 
BRANCH  31  32
ATOM     32  O4  UNL     1      37.809  72.577  -7.579  0.00  0.00    -0.475 OA
BRANCH  32  33
ATOM     33  C27 UNL     1      38.964  73.052  -6.933  0.00  0.00    +0.139 A 
ATOM     34  C28 UNL     1      38.957  73.581  -5.630  0.00  0.00    +0.037 A 
ATOM     35  C29 UNL     1      40.137  74.072  -5.061  0.00  0.00    +0.006 A 
ATOM     36  C30 UNL     1      41.348  74.048  -5.776  0.00  0.00    +0.040 A 
ATOM     37  C32 UNL     1      41.351  73.492  -7.069  0.00  0.00    +0.006 A 
ATOM     38  C33 UNL     1      40.170  73.005  -7.637  0.00  0.00    +0.037 A 
BRANCH  36  39
ATOM     39  C31 UNL     1      42.595  74.605  -5.185  0.00  0.00    +0.208 A 
ATOM     40  N3  UNL     1      43.097  74.289  -3.974  0.00  0.00    -0.106 NA
ATOM     41  N4  UNL     1      44.196  75.013  -3.828  0.00  0.00    -0.021 NA
ATOM     42  N5  UNL     1      44.377  75.756  -4.910  0.00  0.00    -0.021 NA
ATOM     43  N6  UNL     1      43.399  75.519  -5.767  0.00  0.00    -0.106 NA
ENDBRANCH  36  39
ENDBRANCH  32  33
ENDBRANCH  31  32
ENDBRANCH  30  31
ENDBRANCH  29  30
ENDBRANCH  28  29
ENDBRANCH  27  28
ENDBRANCH   6  27
TORSDOF 11
ENDMDL
MODEL 6
REMARK VINA RESULT:      -8.2      1.346      3.855
REMARK  Name = ./data/interface_1/pdb/l1c2.pdb
REMARK  11 active torsions:
REMARK  status: ('A' for Active; 'I' for Inactive)
REMARK    1  A    between atoms: O1_2  and  C2_3
REMARK    2  A    between atoms: C5_6  and  C6_7
REMARK    3  A    between atoms: N2_9  and  C7_10
REMARK    4  A    between atoms: C22_26  and  O3_27
REMARK    5  A    between atoms: O3_27  and  C23_28
REMARK    6  A    between atoms: C23_28  and  C24_29
REMARK    7  A    between atoms: C24_29  and  C25_30
REMARK    8  A    between atoms: C25_30  and  C26_31
REMARK    9  A    between atoms: C26_31  and  O4_32
REMARK   10  A    between atoms: O4_32  and  C27_33
REMARK   11  A    between atoms: C30_36  and  C31_37
REMARK                            x       y       z     vdW  Elec       q    Type
REMARK                         _______ _______ _______ _____ _____    ______ ____
ROOT
ATOM      1  C2  UNL     1      39.457  73.898  -6.544  0.00  0.00    +0.172 A 
ATOM      2  C3  UNL     1      38.864  72.660  -6.841  0.00  0.00    +0.040 A 
ATOM      3  C4  UNL     1      39.141  72.013  -8.044  0.00  0.00    +0.005 A 
ATOM      4  C5  UNL     1      40.035  72.574  -8.975  0.00  0.00    +0.018 A 
ATOM      5  C21 UNL     1      40.633  73.811  -8.668  0.00  0.00    +0.041 A 
ATOM      6  C22 UNL     1      40.330  74.483  -7.468  0.00  0.00    +0.172 A 
ENDROOT
BRANCH   4   7
ATOM      7  C6  UNL     1      40.339  71.845 -10.241  0.00  0.00    +0.077 C 
ATOM      8  N1  UNL     1      40.953  72.484 -11.198  0.00  0.00    -0.180 NA
ATOM      9  N2  UNL     1      41.276  71.898 -12.440  0.00  0.00    -0.183 N 
ATOM     10  C14 UNL     1      41.214  70.465 -12.576  0.00  0.00    +0.244 C 
ATOM     11  O2  UNL     1      41.507  69.901 -13.666  0.00  0.00    -0.273 OA
ATOM     12  C15 UNL     1      40.872  69.657 -11.352  0.00  0.00    +0.089 C 
ATOM     13  C16 UNL     1      40.356  68.239 -11.662  0.00  0.00    +0.035 C 
ATOM     14  C17 UNL     1      38.938  68.224 -12.163  0.00  0.00    -0.030 C 
ATOM     15  C18 UNL     1      38.059  69.188 -11.850  0.00  0.00    -0.030 C 
ATOM     16  C19 UNL     1      38.463  70.483 -11.192  0.00  0.00    +0.032 C 
ATOM     17  C20 UNL     1      39.846  70.427 -10.497  0.00  0.00    +0.055 C 
BRANCH   9  18
ATOM     18  C7  UNL     1      41.706  72.770 -13.544  0.00  0.00    +0.099 C 
ATOM     19  C8  UNL     1      42.474  73.996 -12.989  0.00  0.00    +0.022 C 
ATOM     20  C9  UNL     1      41.612  75.236 -12.691  0.00  0.00    +0.002 C 
ATOM     21  C10 UNL     1      41.433  76.132 -13.928  0.00  0.00    +0.000 C 
ATOM     22  C11 UNL     1      40.409  75.592 -14.933  0.00  0.00    +0.000 C 
ATOM     23  C12 UNL     1      40.758  74.198 -15.477  0.00  0.00    +0.002 C 
ATOM     24  C13 UNL     1      40.494  73.089 -14.445  0.00  0.00    +0.022 C 
ENDBRANCH   9  18
ENDBRANCH   4   7
BRANCH   1  26
ATOM     25  C1  UNL     1      39.978  74.488  -4.168  0.00  0.00    +0.253 C 
ATOM     26  O1  UNL     1      39.191  74.587  -5.349  0.00  0.00    -0.468 OA
ENDBRANCH   1  26
BRANCH   6  27
ATOM     27  O3  UNL     1      40.875  75.741  -7.163  0.00  0.00    -0.472 OA
BRANCH  27  28
ATOM     28  C23 UNL     1      42.260  76.086  -7.256  0.00  0.00    +0.206 C 
BRANCH  28  29
ATOM     29  C24 UNL     1      42.902  76.199  -5.866  0.00  0.00    +0.051 C 
BRANCH  29  30
ATOM     30  C25 UNL     1      43.788  74.987  -5.546  0.00  0.00    +0.051 C 
BRANCH  30  31
ATOM     31  C26 UNL     1      44.137  74.885  -4.057  0.00  0.00    +0.206 C 
BRANCH  31  32
ATOM     32  O4  UNL     1      45.273  74.039  -3.855  0.00  0.00    -0.475 OA
BRANCH  32  33
ATOM     33  C27 UNL     1      45.336  72.651  -4.067  0.00  0.00    +0.139 A 
ATOM     34  C28 UNL     1      45.836  72.071  -5.246  0.00  0.00    +0.037 A 
ATOM     35  C29 UNL     1      45.834  70.681  -5.406  0.00  0.00    +0.006 A 
ATOM     36  C30 UNL     1      45.333  69.839  -4.397  0.00  0.00    +0.040 A 
ATOM     37  C32 UNL     1      44.860  70.426  -3.209  0.00  0.00    +0.006 A 
ATOM     38  C33 UNL     1      44.861  71.815  -3.052  0.00  0.00    +0.037 A 
BRANCH  36  39
ATOM     39  C31 UNL     1      45.297  68.362  -4.583  0.00  0.00    +0.208 A 
ATOM     40  N3  UNL     1      44.871  67.468  -3.668  0.00  0.00    -0.106 NA
ATOM     41  N4  UNL     1      45.019  66.274  -4.220  0.00  0.00    -0.021 NA
ATOM     42  N5  UNL     1      45.520  66.415  -5.439  0.00  0.00    -0.021 NA
ATOM     43  N6  UNL     1      45.698  67.702  -5.688  0.00  0.00    -0.106 NA
ENDBRANCH  36  39
ENDBRANCH  32  33
ENDBRANCH  31  32
ENDBRANCH  30  31
ENDBRANCH  29  30
ENDBRANCH  28  29
ENDBRANCH  27  28
ENDBRANCH   6  27
TORSDOF 11
ENDMDL
MODEL 7
REMARK VINA RESULT:      -8.2      4.267      9.042
REMARK  Name = ./data/interface_1/pdb/l1c2.pdb
REMARK  11 active torsions:
REMARK  status: ('A' for Active; 'I' for Inactive)
REMARK    1  A    between atoms: O1_2  and  C2_3
REMARK    2  A    between atoms: C5_6  and  C6_7
REMARK    3  A    between atoms: N2_9  and  C7_10
REMARK    4  A    between atoms: C22_26  and  O3_27
REMARK    5  A    between atoms: O3_27  and  C23_28
REMARK    6  A    between atoms: C23_28  and  C24_29
REMARK    7  A    between atoms: C24_29  and  C25_30
REMARK    8  A    between atoms: C25_30  and  C26_31
REMARK    9  A    between atoms: C26_31  and  O4_32
REMARK   10  A    between atoms: O4_32  and  C27_33
REMARK   11  A    between atoms: C30_36  and  C31_37
REMARK                            x       y       z     vdW  Elec       q    Type
REMARK                         _______ _______ _______ _____ _____    ______ ____
ROOT
ATOM      1  C2  UNL     1      37.763  69.467  -8.876  0.00  0.00    +0.172 A 
ATOM      2  C3  UNL     1      37.224  70.335  -7.913  0.00  0.00    +0.040 A 
ATOM      3  C4  UNL     1      37.844  71.552  -7.631  0.00  0.00    +0.005 A 
ATOM      4  C5  UNL     1      39.007  71.946  -8.320  0.00  0.00    +0.018 A 
ATOM      5  C21 UNL     1      39.537  71.075  -9.291  0.00  0.00    +0.041 A 
ATOM      6  C22 UNL     1      38.933  69.831  -9.554  0.00  0.00    +0.172 A 
ENDROOT
BRANCH   4   7
ATOM      7  C6  UNL     1      39.631  73.268  -8.022  0.00  0.00    +0.077 C 
ATOM      8  N1  UNL     1      40.353  73.840  -8.945  0.00  0.00    -0.180 NA
ATOM      9  N2  UNL     1      41.001  75.080  -8.767  0.00  0.00    -0.183 N 
ATOM     10  C14 UNL     1      40.625  75.912  -7.652  0.00  0.00    +0.244 C 
ATOM     11  O2  UNL     1      41.171  77.035  -7.464  0.00  0.00    -0.273 OA
ATOM     12  C15 UNL     1      39.501  75.441  -6.769  0.00  0.00    +0.089 C 
ATOM     13  C16 UNL     1      39.481  76.095  -5.375  0.00  0.00    +0.035 C 
ATOM     14  C17 UNL     1      40.537  75.550  -4.453  0.00  0.00    -0.030 C 
ATOM     15  C18 UNL     1      41.035  74.313  -4.589  0.00  0.00    -0.030 C 
ATOM     16  C19 UNL     1      40.780  73.455  -5.802  0.00  0.00    +0.032 C 
ATOM     17  C20 UNL     1      39.557  73.905  -6.640  0.00  0.00    +0.055 C 
BRANCH   9  18
ATOM     18  C7  UNL     1      42.010  75.501  -9.751  0.00  0.00    +0.099 C 
ATOM     19  C8  UNL     1      41.358  76.392 -10.838  0.00  0.00    +0.022 C 
ATOM     20  C9  UNL     1      40.835  75.646 -12.079  0.00  0.00    +0.002 C 
ATOM     21  C10 UNL     1      41.928  75.453 -13.144  0.00  0.00    +0.000 C 
ATOM     22  C11 UNL     1      42.915  74.328 -12.813  0.00  0.00    +0.000 C 
ATOM     23  C12 UNL     1      43.662  74.536 -11.487  0.00  0.00    +0.002 C 
ATOM     24  C13 UNL     1      42.767  74.259 -10.268  0.00  0.00    +0.022 C 
ENDBRANCH   9  18
ENDBRANCH   4   7
BRANCH   1  26
ATOM     25  C1  UNL     1      35.895  68.064  -9.773  0.00  0.00    +0.253 C 
ATOM     26  O1  UNL     1      37.177  68.227  -9.177  0.00  0.00    -0.468 OA
ENDBRANCH   1  26
BRANCH   6  27
ATOM     27  O3  UNL     1      39.472  68.925 -10.481  0.00  0.00    -0.472 OA
BRANCH  27  28
ATOM     28  C23 UNL     1      38.913  68.623 -11.763  0.00  0.00    +0.206 C 
BRANCH  28  29
ATOM     29  C24 UNL     1      39.878  67.780 -12.609  0.00  0.00    +0.051 C 
BRANCH  29  30
ATOM     30  C25 UNL     1      41.194  67.506 -11.869  0.00  0.00    +0.051 C 
BRANCH  30  31
ATOM     31  C26 UNL     1      42.364  68.331 -12.415  0.00  0.00    +0.206 C 
BRANCH  31  32
ATOM     32  O4  UNL     1      42.057  69.729 -12.393  0.00  0.00    -0.475 OA
BRANCH  32  33
ATOM     33  C27 UNL     1      41.721  70.533 -13.495  0.00  0.00    +0.139 A 
ATOM     34  C28 UNL     1      42.383  70.461 -14.734  0.00  0.00    +0.037 A 
ATOM     35  C29 UNL     1      42.023  71.319 -15.779  0.00  0.00    +0.006 A 
ATOM     36  C30 UNL     1      40.998  72.268 -15.612  0.00  0.00    +0.040 A 
ATOM     37  C32 UNL     1      40.322  72.315 -14.379  0.00  0.00    +0.006 A 
ATOM     38  C33 UNL     1      40.686  71.459 -13.336  0.00  0.00    +0.037 A 
BRANCH  36  39
ATOM     39  C31 UNL     1      40.640  73.206 -16.712  0.00  0.00    +0.208 A 
ATOM     40  N3  UNL     1      39.394  73.626 -17.009  0.00  0.00    -0.106 NA
ATOM     41  N4  UNL     1      39.512  74.428 -18.055  0.00  0.00    -0.021 NA
ATOM     42  N5  UNL     1      40.789  74.509 -18.401  0.00  0.00    -0.021 NA
ATOM     43  N6  UNL     1      41.509  73.762 -17.581  0.00  0.00    -0.106 NA
ENDBRANCH  36  39
ENDBRANCH  32  33
ENDBRANCH  31  32
ENDBRANCH  30  31
ENDBRANCH  29  30
ENDBRANCH  28  29
ENDBRANCH  27  28
ENDBRANCH   6  27
TORSDOF 11
ENDMDL
MODEL 8
REMARK VINA RESULT:      -8.2      4.381      8.793
REMARK  Name = ./data/interface_1/pdb/l1c2.pdb
REMARK  11 active torsions:
REMARK  status: ('A' for Active; 'I' for Inactive)
REMARK    1  A    between atoms: O1_2  and  C2_3
REMARK    2  A    between atoms: C5_6  and  C6_7
REMARK    3  A    between atoms: N2_9  and  C7_10
REMARK    4  A    between atoms: C22_26  and  O3_27
REMARK    5  A    between atoms: O3_27  and  C23_28
REMARK    6  A    between atoms: C23_28  and  C24_29
REMARK    7  A    between atoms: C24_29  and  C25_30
REMARK    8  A    between atoms: C25_30  and  C26_31
REMARK    9  A    between atoms: C26_31  and  O4_32
REMARK   10  A    between atoms: O4_32  and  C27_33
REMARK   11  A    between atoms: C30_36  and  C31_37
REMARK                            x       y       z     vdW  Elec       q    Type
REMARK                         _______ _______ _______ _____ _____    ______ ____
ROOT
ATOM      1  C2  UNL     1      40.561  73.130 -16.523  0.00  0.00    +0.172 A 
ATOM      2  C3  UNL     1      39.697  73.179 -15.416  0.00  0.00    +0.040 A 
ATOM      3  C4  UNL     1      40.186  73.506 -14.152  0.00  0.00    +0.005 A 
ATOM      4  C5  UNL     1      41.546  73.814 -13.962  0.00  0.00    +0.018 A 
ATOM      5  C21 UNL     1      42.404  73.771 -15.077  0.00  0.00    +0.041 A 
ATOM      6  C22 UNL     1      41.921  73.410 -16.349  0.00  0.00    +0.172 A 
ENDROOT
BRANCH   4   7
ATOM      7  C6  UNL     1      42.036  74.192 -12.604  0.00  0.00    +0.077 C 
ATOM      8  N1  UNL     1      41.209  74.120 -11.599  0.00  0.00    -0.180 NA
ATOM      9  N2  UNL     1      41.561  74.467 -10.277  0.00  0.00    -0.183 N 
ATOM     10  C14 UNL     1      42.953  74.618  -9.940  0.00  0.00    +0.244 C 
ATOM     11  O2  UNL     1      43.310  74.915  -8.766  0.00  0.00    -0.273 OA
ATOM     12  C15 UNL     1      43.972  74.324 -11.009  0.00  0.00    +0.089 C 
ATOM     13  C16 UNL     1      45.353  74.955 -10.749  0.00  0.00    +0.035 C 
ATOM     14  C17 UNL     1      45.385  76.435 -11.016  0.00  0.00    -0.030 C 
ATOM     15  C18 UNL     1      44.548  77.023 -11.884  0.00  0.00    -0.030 C 
ATOM     16  C19 UNL     1      43.353  76.320 -12.475  0.00  0.00    +0.032 C 
ATOM     17  C20 UNL     1      43.425  74.776 -12.379  0.00  0.00    +0.055 C 
BRANCH   9  18
ATOM     18  C7  UNL     1      40.493  74.622  -9.278  0.00  0.00    +0.099 C 
ATOM     19  C8  UNL     1      40.142  76.121  -9.100  0.00  0.00    +0.022 C 
ATOM     20  C9  UNL     1      40.925  76.857  -7.997  0.00  0.00    +0.002 C 
ATOM     21  C10 UNL     1      40.257  76.719  -6.618  0.00  0.00    +0.000 C 
ATOM     22  C11 UNL     1      40.494  75.357  -5.956  0.00  0.00    +0.000 C 
ATOM     23  C12 UNL     1      39.978  74.172  -6.786  0.00  0.00    +0.002 C 
ATOM     24  C13 UNL     1      40.886  73.868  -7.989  0.00  0.00    +0.022 C 
ENDBRANCH   9  18
ENDBRANCH   4   7
BRANCH   1  26
ATOM     25  C1  UNL     1      38.785  73.005 -18.282  0.00  0.00    +0.253 C 
ATOM     26  O1  UNL     1      40.109  72.791 -17.809  0.00  0.00    -0.468 OA
ENDBRANCH   1  26
BRANCH   6  27
ATOM     27  O3  UNL     1      42.767  73.311 -17.465  0.00  0.00    -0.472 OA
BRANCH  27  28
ATOM     28  C23 UNL     1      43.968  72.537 -17.525  0.00  0.00    +0.206 C 
BRANCH  28  29
ATOM     29  C24 UNL     1      43.662  71.033 -17.564  0.00  0.00    +0.051 C 
BRANCH  29  30
ATOM     30  C25 UNL     1      43.794  70.388 -16.177  0.00  0.00    +0.051 C 
BRANCH  30  31
ATOM     31  C26 UNL     1      42.439  70.013 -15.567  0.00  0.00    +0.206 C 
BRANCH  31  32
ATOM     32  O4  UNL     1      42.471  70.126 -14.141  0.00  0.00    -0.475 OA
BRANCH  32  33
ATOM     33  C27 UNL     1      41.443  69.783 -13.247  0.00  0.00    +0.139 A 
ATOM     34  C28 UNL     1      40.684  68.605 -13.358  0.00  0.00    +0.037 A 
ATOM     35  C29 UNL     1      39.648  68.343 -12.455  0.00  0.00    +0.006 A 
ATOM     36  C30 UNL     1      39.345  69.250 -11.423  0.00  0.00    +0.040 A 
ATOM     37  C32 UNL     1      40.127  70.413 -11.301  0.00  0.00    +0.006 A 
ATOM     38  C33 UNL     1      41.160  70.673 -12.206  0.00  0.00    +0.037 A 
BRANCH  36  39
ATOM     39  C31 UNL     1      38.218  68.989 -10.485  0.00  0.00    +0.208 A 
ATOM     40  N3  UNL     1      38.140  69.428  -9.212  0.00  0.00    -0.106 NA
ATOM     41  N4  UNL     1      36.998  68.966  -8.729  0.00  0.00    -0.021 NA
ATOM     42  N5  UNL     1      36.381  68.261  -9.666  0.00  0.00    -0.021 NA
ATOM     43  N6  UNL     1      37.116  68.263 -10.766  0.00  0.00    -0.106 NA
ENDBRANCH  36  39
ENDBRANCH  32  33
ENDBRANCH  31  32
ENDBRANCH  30  31
ENDBRANCH  29  30
ENDBRANCH  28  29
ENDBRANCH  27  28
ENDBRANCH   6  27
TORSDOF 11
ENDMDL
MODEL 9
REMARK VINA RESULT:      -8.0      2.083      3.690
REMARK  Name = ./data/interface_1/pdb/l1c2.pdb
REMARK  11 active torsions:
REMARK  status: ('A' for Active; 'I' for Inactive)
REMARK    1  A    between atoms: O1_2  and  C2_3
REMARK    2  A    between atoms: C5_6  and  C6_7
REMARK    3  A    between atoms: N2_9  and  C7_10
REMARK    4  A    between atoms: C22_26  and  O3_27
REMARK    5  A    between atoms: O3_27  and  C23_28
REMARK    6  A    between atoms: C23_28  and  C24_29
REMARK    7  A    between atoms: C24_29  and  C25_30
REMARK    8  A    between atoms: C25_30  and  C26_31
REMARK    9  A    between atoms: C26_31  and  O4_32
REMARK   10  A    between atoms: O4_32  and  C27_33
REMARK   11  A    between atoms: C30_36  and  C31_37
REMARK                            x       y       z     vdW  Elec       q    Type
REMARK                         _______ _______ _______ _____ _____    ______ ____
ROOT
ATOM      1  C2  UNL     1      44.935  75.078 -10.102  0.00  0.00    +0.172 A 
ATOM      2  C3  UNL     1      45.013  75.391 -11.469  0.00  0.00    +0.040 A 
ATOM      3  C4  UNL     1      44.079  74.875 -12.367  0.00  0.00    +0.005 A 
ATOM      4  C5  UNL     1      43.029  74.051 -11.921  0.00  0.00    +0.018 A 
ATOM      5  C21 UNL     1      42.952  73.748 -10.549  0.00  0.00    +0.041 A 
ATOM      6  C22 UNL     1      43.912  74.240  -9.644  0.00  0.00    +0.172 A 
ENDROOT
BRANCH   4   7
ATOM      7  C6  UNL     1      42.025  73.539 -12.898  0.00  0.00    +0.077 C 
ATOM      8  N1  UNL     1      41.198  72.606 -12.515  0.00  0.00    -0.180 NA
ATOM      9  N2  UNL     1      40.220  72.040 -13.359  0.00  0.00    -0.183 N 
ATOM     10  C14 UNL     1      39.894  72.702 -14.596  0.00  0.00    +0.244 C 
ATOM     11  O2  UNL     1      39.016  72.236 -15.373  0.00  0.00    -0.273 OA
ATOM     12  C15 UNL     1      40.570  74.015 -14.890  0.00  0.00    +0.089 C 
ATOM     13  C16 UNL     1      40.558  74.407 -16.380  0.00  0.00    +0.035 C 
ATOM     14  C17 UNL     1      41.545  73.624 -17.203  0.00  0.00    -0.030 C 
ATOM     15  C18 UNL     1      42.658  73.096 -16.673  0.00  0.00    -0.030 C 
ATOM     16  C19 UNL     1      42.900  73.015 -15.188  0.00  0.00    +0.032 C 
ATOM     17  C20 UNL     1      42.017  73.979 -14.357  0.00  0.00    +0.055 C 
BRANCH   9  18
ATOM     18  C7  UNL     1      39.536  70.812 -12.927  0.00  0.00    +0.099 C 
ATOM     19  C8  UNL     1      38.941  71.002 -11.509  0.00  0.00    +0.022 C 
ATOM     20  C9  UNL     1      39.860  70.590 -10.345  0.00  0.00    +0.002 C 
ATOM     21  C10 UNL     1      39.734  69.095 -10.004  0.00  0.00    +0.000 C 
ATOM     22  C11 UNL     1      40.471  68.178 -10.986  0.00  0.00    +0.000 C 
ATOM     23  C12 UNL     1      39.986  68.314 -12.438  0.00  0.00    +0.002 C 
ATOM     24  C13 UNL     1      40.489  69.609 -13.098  0.00  0.00    +0.022 C 
ENDBRANCH   9  18
ENDBRANCH   4   7
BRANCH   1  26
ATOM     25  C1  UNL     1      45.820  76.862  -8.586  0.00  0.00    +0.253 C 
ATOM     26  O1  UNL     1      45.866  75.565  -9.169  0.00  0.00    -0.468 OA
ENDBRANCH   1  26
BRANCH   6  27
ATOM     27  O3  UNL     1      43.884  73.910  -8.279  0.00  0.00    -0.472 OA
BRANCH  27  28
ATOM     28  C23 UNL     1      42.708  73.849  -7.468  0.00  0.00    +0.206 C 
BRANCH  28  29
ATOM     29  C24 UNL     1      43.041  74.068  -5.985  0.00  0.00    +0.051 C 
BRANCH  29  30
ATOM     30  C25 UNL     1      44.196  75.062  -5.800  0.00  0.00    +0.051 C 
BRANCH  30  31
ATOM     31  C26 UNL     1      44.791  75.022  -4.389  0.00  0.00    +0.206 C 
BRANCH  31  32
ATOM     32  O4  UNL     1      45.817  74.029  -4.295  0.00  0.00    -0.475 OA
BRANCH  32  33
ATOM     33  C27 UNL     1      45.646  72.635  -4.352  0.00  0.00    +0.139 A 
ATOM     34  C28 UNL     1      44.984  71.896  -3.356  0.00  0.00    +0.037 A 
ATOM     35  C29 UNL     1      44.883  70.505  -3.458  0.00  0.00    +0.006 A 
ATOM     36  C30 UNL     1      45.438  69.819  -4.553  0.00  0.00    +0.040 A 
ATOM     37  C32 UNL     1      46.074  70.568  -5.560  0.00  0.00    +0.006 A 
ATOM     38  C33 UNL     1      46.177  71.958  -5.454  0.00  0.00    +0.037 A 
BRANCH  36  39
ATOM     39  C31 UNL     1      45.363  68.335  -4.642  0.00  0.00    +0.208 A 
ATOM     40  N3  UNL     1      45.714  67.596  -5.714  0.00  0.00    -0.106 NA
ATOM     41  N4  UNL     1      45.478  66.335  -5.388  0.00  0.00    -0.021 NA
ATOM     42  N5  UNL     1      44.996  66.285  -4.155  0.00  0.00    -0.021 NA
ATOM     43  N6  UNL     1      44.918  67.513  -3.670  0.00  0.00    -0.106 NA
ENDBRANCH  36  39
ENDBRANCH  32  33
ENDBRANCH  31  32
ENDBRANCH  30  31
ENDBRANCH  29  30
ENDBRANCH  28  29
ENDBRANCH  27  28
ENDBRANCH   6  27
TORSDOF 11
ENDMDL
