MODEL 1
REMARK VINA RESULT:      -9.3      0.000      0.000
REMARK  Name = ./data/interface_1/pdb/l1c0.pdb
REMARK  11 active torsions:
REMARK  status: ('A' for Active; 'I' for Inactive)
REMARK    1  A    between atoms: O1_2  and  C2_3
REMARK    2  A    between atoms: C5_6  and  C6_7
REMARK    3  A    between atoms: N2_9  and  C7_10
REMARK    4  A    between atoms: C22_26  and  O3_27
REMARK    5  A    between atoms: O3_27  and  C23_28
REMARK    6  A    between atoms: C23_28  and  C24_29
REMARK    7  A    between atoms: C24_29  and  C25_30
REMARK    8  A    between atoms: C25_30  and  C26_31
REMARK    9  A    between atoms: C26_31  and  O4_32
REMARK   10  A    between atoms: O4_32  and  C27_33
REMARK   11  A    between atoms: C30_36  and  C31_37
REMARK                            x       y       z     vdW  Elec       q    Type
REMARK                         _______ _______ _______ _____ _____    ______ ____
ROOT
ATOM      1  C2  UNL     1      39.921  74.111  -5.603  0.00  0.00    +0.172 A 
ATOM      2  C3  UNL     1      39.381  73.030  -6.322  0.00  0.00    +0.040 A 
ATOM      3  C4  UNL     1      39.610  72.907  -7.693  0.00  0.00    +0.005 A 
ATOM      4  C5  UNL     1      40.377  73.863  -8.377  0.00  0.00    +0.018 A 
ATOM      5  C21 UNL     1      40.888  74.960  -7.661  0.00  0.00    +0.041 A 
ATOM      6  C22 UNL     1      40.677  75.082  -6.275  0.00  0.00    +0.172 A 
ENDROOT
BRANCH   4   7
ATOM      7  C6  UNL     1      40.708  73.706  -9.817  0.00  0.00    +0.077 C 
ATOM      8  N1  UNL     1      40.217  72.682 -10.457  0.00  0.00    -0.180 NA
ATOM      9  N2  UNL     1      40.499  72.406 -11.811  0.00  0.00    -0.183 N 
ATOM     10  C14 UNL     1      41.131  73.421 -12.615  0.00  0.00    +0.244 C 
ATOM     11  O2  UNL     1      41.428  73.203 -13.822  0.00  0.00    -0.273 OA
ATOM     12  C15 UNL     1      41.361  74.774 -11.992  0.00  0.00    +0.089 C 
ATOM     13  C16 UNL     1      42.422  75.626 -12.715  0.00  0.00    +0.035 C 
ATOM     14  C17 UNL     1      43.833  75.204 -12.405  0.00  0.00    -0.030 C 
ATOM     15  C18 UNL     1      44.161  74.551 -11.280  0.00  0.00    -0.030 C 
ATOM     16  C19 UNL     1      43.134  73.966 -10.347  0.00  0.00    +0.032 C 
ATOM     17  C20 UNL     1      41.732  74.594 -10.504  0.00  0.00    +0.055 C 
BRANCH   9  18
ATOM     18  C7  UNL     1      40.195  71.067 -12.339  0.00  0.00    +0.099 C 
ATOM     19  C8  UNL     1      41.513  70.287 -12.531  0.00  0.00    +0.022 C 
ATOM     20  C9  UNL     1      41.324  68.782 -12.789  0.00  0.00    +0.002 C 
ATOM     21  C10 UNL     1      41.311  67.968 -11.485  0.00  0.00    +0.000 C 
ATOM     22  C11 UNL     1      40.007  68.098 -10.691  0.00  0.00    +0.000 C 
ATOM     23  C12 UNL     1      39.678  69.541 -10.284  0.00  0.00    +0.002 C 
ATOM     24  C13 UNL     1      39.125  70.370 -11.460  0.00  0.00    +0.022 C 
ENDBRANCH   9  18
ENDBRANCH   4   7
BRANCH   1  26
ATOM     25  C1  UNL     1      38.623  74.875  -3.607  0.00  0.00    +0.253 C 
ATOM     26  O1  UNL     1      39.744  74.246  -4.217  0.00  0.00    -0.468 OA
ENDBRANCH   1  26
BRANCH   6  27
ATOM     27  O3  UNL     1      41.210  76.144  -5.524  0.00  0.00    -0.472 OA
BRANCH  27  28
ATOM     28  C23 UNL     1      42.600  76.444  -5.366  0.00  0.00    +0.206 C 
BRANCH  28  29
ATOM     29  C24 UNL     1      43.406  75.205  -4.954  0.00  0.00    +0.051 C 
BRANCH  29  30
ATOM     30  C25 UNL     1      43.364  74.970  -3.435  0.00  0.00    +0.051 C 
BRANCH  30  31
ATOM     31  C26 UNL     1      44.701  74.438  -2.894  0.00  0.00    +0.206 C 
BRANCH  31  32
ATOM     32  O4  UNL     1      44.532  73.234  -2.141  0.00  0.00    -0.475 OA
BRANCH  32  33
ATOM     33  C27 UNL     1      44.738  71.932  -2.625  0.00  0.00    +0.139 A 
ATOM     34  C28 UNL     1      44.572  70.788  -1.825  0.00  0.00    +0.037 A 
ATOM     35  C29 UNL     1      44.744  69.514  -2.374  0.00  0.00    +0.006 A 
ATOM     36  C30 UNL     1      45.095  69.358  -3.727  0.00  0.00    +0.040 A 
ATOM     37  C32 UNL     1      45.290  70.508  -4.513  0.00  0.00    +0.006 A 
ATOM     38  C33 UNL     1      45.118  71.779  -3.961  0.00  0.00    +0.037 A 
BRANCH  36  39
ATOM     39  C31 UNL     1      45.234  68.000  -4.304  0.00  0.00    +0.208 A 
ATOM     40  N3  UNL     1      45.685  67.748  -5.548  0.00  0.00    -0.106 NA
ATOM     41  N4  UNL     1      45.686  66.426  -5.655  0.00  0.00    -0.021 NA
ATOM     42  N5  UNL     1      45.259  65.882  -4.527  0.00  0.00    -0.021 NA
ATOM     43  N6  UNL     1      44.971  66.844  -3.668  0.00  0.00    -0.106 NA
ENDBRANCH  36  39
ENDBRANCH  32  33
ENDBRANCH  31  32
ENDBRANCH  30  31
ENDBRANCH  29  30
ENDBRANCH  28  29
ENDBRANCH  27  28
ENDBRANCH   6  27
TORSDOF 11
ENDMDL
MODEL 2
REMARK VINA RESULT:      -8.9      4.520      7.782
REMARK  Name = ./data/interface_1/pdb/l1c0.pdb
REMARK  11 active torsions:
REMARK  status: ('A' for Active; 'I' for Inactive)
REMARK    1  A    between atoms: O1_2  and  C2_3
REMARK    2  A    between atoms: C5_6  and  C6_7
REMARK    3  A    between atoms: N2_9  and  C7_10
REMARK    4  A    between atoms: C22_26  and  O3_27
REMARK    5  A    between atoms: O3_27  and  C23_28
REMARK    6  A    between atoms: C23_28  and  C24_29
REMARK    7  A    between atoms: C24_29  and  C25_30
REMARK    8  A    between atoms: C25_30  and  C26_31
REMARK    9  A    between atoms: C26_31  and  O4_32
REMARK   10  A    between atoms: O4_32  and  C27_33
REMARK   11  A    between atoms: C30_36  and  C31_37
REMARK                            x       y       z     vdW  Elec       q    Type
REMARK                         _______ _______ _______ _____ _____    ______ ____
ROOT
ATOM      1  C2  UNL     1      41.048  68.211 -12.351  0.00  0.00    +0.172 A 
ATOM      2  C3  UNL     1      42.172  68.716 -13.030  0.00  0.00    +0.040 A 
ATOM      3  C4  UNL     1      42.160  70.007 -13.557  0.00  0.00    +0.005 A 
ATOM      4  C5  UNL     1      41.024  70.821 -13.426  0.00  0.00    +0.018 A 
ATOM      5  C21 UNL     1      39.890  70.302 -12.776  0.00  0.00    +0.041 A 
ATOM      6  C22 UNL     1      39.900  69.007 -12.224  0.00  0.00    +0.172 A 
ENDROOT
BRANCH   4   7
ATOM      7  C6  UNL     1      41.019  72.229 -13.901  0.00  0.00    +0.077 C 
ATOM      8  N1  UNL     1      41.112  73.182 -13.015  0.00  0.00    -0.180 NA
ATOM      9  N2  UNL     1      41.072  74.553 -13.345  0.00  0.00    -0.183 N 
ATOM     10  C14 UNL     1      41.207  74.945 -14.724  0.00  0.00    +0.244 C 
ATOM     11  O2  UNL     1      41.145  76.159 -15.063  0.00  0.00    -0.273 OA
ATOM     12  C15 UNL     1      41.494  73.869 -15.739  0.00  0.00    +0.089 C 
ATOM     13  C16 UNL     1      41.167  74.272 -17.191  0.00  0.00    +0.035 C 
ATOM     14  C17 UNL     1      39.695  74.225 -17.503  0.00  0.00    -0.030 C 
ATOM     15  C18 UNL     1      38.837  73.451 -16.821  0.00  0.00    -0.030 C 
ATOM     16  C19 UNL     1      39.208  72.754 -15.538  0.00  0.00    +0.032 C 
ATOM     17  C20 UNL     1      40.732  72.584 -15.350  0.00  0.00    +0.055 C 
BRANCH   9  18
ATOM     18  C7  UNL     1      40.833  75.531 -12.273  0.00  0.00    +0.099 C 
ATOM     19  C8  UNL     1      40.743  74.790 -10.921  0.00  0.00    +0.022 C 
ATOM     20  C9  UNL     1      40.795  75.712  -9.691  0.00  0.00    +0.002 C 
ATOM     21  C10 UNL     1      42.234  75.939  -9.198  0.00  0.00    +0.000 C 
ATOM     22  C11 UNL     1      43.041  76.900 -10.078  0.00  0.00    +0.000 C 
ATOM     23  C12 UNL     1      43.168  76.437 -11.536  0.00  0.00    +0.002 C 
ATOM     24  C13 UNL     1      41.876  76.675 -12.341  0.00  0.00    +0.022 C 
ENDBRANCH   9  18
ENDBRANCH   4   7
BRANCH   1  26
ATOM     25  C1  UNL     1      41.514  66.636 -10.467  0.00  0.00    +0.253 C 
ATOM     26  O1  UNL     1      41.038  66.932 -11.775  0.00  0.00    -0.468 OA
ENDBRANCH   1  26
BRANCH   6  27
ATOM     27  O3  UNL     1      38.798  68.476 -11.533  0.00  0.00    -0.472 OA
BRANCH  27  28
ATOM     28  C23 UNL     1      37.660  69.214 -11.077  0.00  0.00    +0.206 C 
BRANCH  28  29
ATOM     29  C24 UNL     1      37.312  68.879  -9.620  0.00  0.00    +0.051 C 
BRANCH  29  30
ATOM     30  C25 UNL     1      37.646  70.038  -8.667  0.00  0.00    +0.051 C 
BRANCH  30  31
ATOM     31  C26 UNL     1      39.127  70.443  -8.744  0.00  0.00    +0.206 C 
BRANCH  31  32
ATOM     32  O4  UNL     1      39.293  71.863  -8.745  0.00  0.00    -0.475 OA
BRANCH  32  33
ATOM     33  C27 UNL     1      39.643  72.646  -7.634  0.00  0.00    +0.139 A 
ATOM     34  C28 UNL     1      40.972  72.992  -7.333  0.00  0.00    +0.037 A 
ATOM     35  C29 UNL     1      41.256  73.816  -6.240  0.00  0.00    +0.006 A 
ATOM     36  C30 UNL     1      40.222  74.300  -5.420  0.00  0.00    +0.040 A 
ATOM     37  C32 UNL     1      38.897  73.925  -5.708  0.00  0.00    +0.006 A 
ATOM     38  C33 UNL     1      38.617  73.101  -6.801  0.00  0.00    +0.037 A 
BRANCH  36  39
ATOM     39  C31 UNL     1      40.536  75.205  -4.289  0.00  0.00    +0.208 A 
ATOM     40  N3  UNL     1      40.734  76.532  -4.413  0.00  0.00    -0.106 NA
ATOM     41  N4  UNL     1      40.952  76.967  -3.180  0.00  0.00    -0.021 NA
ATOM     42  N5  UNL     1      40.889  75.955  -2.327  0.00  0.00    -0.021 NA
ATOM     43  N6  UNL     1      40.630  74.846  -2.996  0.00  0.00    -0.106 NA
ENDBRANCH  36  39
ENDBRANCH  32  33
ENDBRANCH  31  32
ENDBRANCH  30  31
ENDBRANCH  29  30
ENDBRANCH  28  29
ENDBRANCH  27  28
ENDBRANCH   6  27
TORSDOF 11
ENDMDL
MODEL 3
REMARK VINA RESULT:      -8.8      4.369      9.121
REMARK  Name = ./data/interface_1/pdb/l1c0.pdb
REMARK  11 active torsions:
REMARK  status: ('A' for Active; 'I' for Inactive)
REMARK    1  A    between atoms: O1_2  and  C2_3
REMARK    2  A    between atoms: C5_6  and  C6_7
REMARK    3  A    between atoms: N2_9  and  C7_10
REMARK    4  A    between atoms: C22_26  and  O3_27
REMARK    5  A    between atoms: O3_27  and  C23_28
REMARK    6  A    between atoms: C23_28  and  C24_29
REMARK    7  A    between atoms: C24_29  and  C25_30
REMARK    8  A    between atoms: C25_30  and  C26_31
REMARK    9  A    between atoms: C26_31  and  O4_32
REMARK   10  A    between atoms: O4_32  and  C27_33
REMARK   11  A    between atoms: C30_36  and  C31_37
REMARK                            x       y       z     vdW  Elec       q    Type
REMARK                         _______ _______ _______ _____ _____    ______ ____
ROOT
ATOM      1  C2  UNL     1      37.774  69.620  -8.981  0.00  0.00    +0.172 A 
ATOM      2  C3  UNL     1      37.055  70.409  -8.064  0.00  0.00    +0.040 A 
ATOM      3  C4  UNL     1      37.611  71.581  -7.551  0.00  0.00    +0.005 A 
ATOM      4  C5  UNL     1      38.898  71.988  -7.935  0.00  0.00    +0.018 A 
ATOM      5  C21 UNL     1      39.627  71.181  -8.827  0.00  0.00    +0.041 A 
ATOM      6  C22 UNL     1      39.067  70.007  -9.363  0.00  0.00    +0.172 A 
ENDROOT
BRANCH   4   7
ATOM      7  C6  UNL     1      39.475  73.277  -7.471  0.00  0.00    +0.077 C 
ATOM      8  N1  UNL     1      40.571  73.703  -8.033  0.00  0.00    -0.180 NA
ATOM      9  N2  UNL     1      41.232  74.887  -7.645  0.00  0.00    -0.183 N 
ATOM     10  C14 UNL     1      40.550  75.818  -6.783  0.00  0.00    +0.244 C 
ATOM     11  O2  UNL     1      41.119  76.873  -6.387  0.00  0.00    -0.273 OA
ATOM     12  C15 UNL     1      39.115  75.529  -6.426  0.00  0.00    +0.089 C 
ATOM     13  C16 UNL     1      38.616  76.279  -5.175  0.00  0.00    +0.035 C 
ATOM     14  C17 UNL     1      39.097  75.668  -3.886  0.00  0.00    -0.030 C 
ATOM     15  C18 UNL     1      39.455  74.378  -3.788  0.00  0.00    -0.030 C 
ATOM     16  C19 UNL     1      39.646  73.490  -4.989  0.00  0.00    +0.032 C 
ATOM     17  C20 UNL     1      38.928  74.006  -6.256  0.00  0.00    +0.055 C 
BRANCH   9  18
ATOM     18  C7  UNL     1      42.620  75.099  -8.084  0.00  0.00    +0.099 C 
ATOM     19  C8  UNL     1      42.981  74.042  -9.151  0.00  0.00    +0.022 C 
ATOM     20  C9  UNL     1      44.288  74.331  -9.907  0.00  0.00    +0.002 C 
ATOM     21  C10 UNL     1      44.052  75.176 -11.171  0.00  0.00    +0.000 C 
ATOM     22  C11 UNL     1      43.777  76.655 -10.878  0.00  0.00    +0.000 C 
ATOM     23  C12 UNL     1      42.549  76.886  -9.987  0.00  0.00    +0.002 C 
ATOM     24  C13 UNL     1      42.834  76.575  -8.505  0.00  0.00    +0.022 C 
ENDBRANCH   9  18
ENDBRANCH   4   7
BRANCH   1  26
ATOM     25  C1  UNL     1      36.640  68.390 -10.839  0.00  0.00    +0.253 C 
ATOM     26  O1  UNL     1      37.231  68.456  -9.547  0.00  0.00    -0.468 OA
ENDBRANCH   1  26
BRANCH   6  27
ATOM     27  O3  UNL     1      39.753  69.200 -10.288  0.00  0.00    -0.472 OA
BRANCH  27  28
ATOM     28  C23 UNL     1      40.733  68.208  -9.969  0.00  0.00    +0.206 C 
BRANCH  28  29
ATOM     29  C24 UNL     1      41.457  67.699 -11.223  0.00  0.00    +0.051 C 
BRANCH  29  30
ATOM     30  C25 UNL     1      40.493  67.503 -12.404  0.00  0.00    +0.051 C 
BRANCH  30  31
ATOM     31  C26 UNL     1      40.755  68.506 -13.539  0.00  0.00    +0.206 C 
BRANCH  31  32
ATOM     32  O4  UNL     1      41.741  69.476 -13.178  0.00  0.00    -0.475 OA
BRANCH  32  33
ATOM     33  C27 UNL     1      41.591  70.869 -13.271  0.00  0.00    +0.139 A 
ATOM     34  C28 UNL     1      41.779  71.577 -14.472  0.00  0.00    +0.037 A 
ATOM     35  C29 UNL     1      41.567  72.958 -14.515  0.00  0.00    +0.006 A 
ATOM     36  C30 UNL     1      41.175  73.659 -13.362  0.00  0.00    +0.040 A 
ATOM     37  C32 UNL     1      41.019  72.950 -12.158  0.00  0.00    +0.006 A 
ATOM     38  C33 UNL     1      41.232  71.570 -12.117  0.00  0.00    +0.037 A 
BRANCH  36  39
ATOM     39  C31 UNL     1      40.915  75.117 -13.435  0.00  0.00    +0.208 A 
ATOM     40  N3  UNL     1      40.432  75.853 -12.415  0.00  0.00    -0.106 NA
ATOM     41  N4  UNL     1      40.380  77.094 -12.876  0.00  0.00    -0.021 NA
ATOM     42  N5  UNL     1      40.816  77.129 -14.126  0.00  0.00    -0.021 NA
ATOM     43  N6  UNL     1      41.156  75.907 -14.497  0.00  0.00    -0.106 NA
ENDBRANCH  36  39
ENDBRANCH  32  33
ENDBRANCH  31  32
ENDBRANCH  30  31
ENDBRANCH  29  30
ENDBRANCH  28  29
ENDBRANCH  27  28
ENDBRANCH   6  27
TORSDOF 11
ENDMDL
MODEL 4
REMARK VINA RESULT:      -8.4      1.749      4.022
REMARK  Name = ./data/interface_1/pdb/l1c0.pdb
REMARK  11 active torsions:
REMARK  status: ('A' for Active; 'I' for Inactive)
REMARK    1  A    between atoms: O1_2  and  C2_3
REMARK    2  A    between atoms: C5_6  and  C6_7
REMARK    3  A    between atoms: N2_9  and  C7_10
REMARK    4  A    between atoms: C22_26  and  O3_27
REMARK    5  A    between atoms: O3_27  and  C23_28
REMARK    6  A    between atoms: C23_28  and  C24_29
REMARK    7  A    between atoms: C24_29  and  C25_30
REMARK    8  A    between atoms: C25_30  and  C26_31
REMARK    9  A    between atoms: C26_31  and  O4_32
REMARK   10  A    between atoms: O4_32  and  C27_33
REMARK   11  A    between atoms: C30_36  and  C31_37
REMARK                            x       y       z     vdW  Elec       q    Type
REMARK                         _______ _______ _______ _____ _____    ______ ____
ROOT
ATOM      1  C2  UNL     1      39.649  73.817  -6.936  0.00  0.00    +0.172 A 
ATOM      2  C3  UNL     1      39.007  72.590  -7.180  0.00  0.00    +0.040 A 
ATOM      3  C4  UNL     1      39.250  71.886  -8.360  0.00  0.00    +0.005 A 
ATOM      4  C5  UNL     1      40.133  72.395  -9.326  0.00  0.00    +0.018 A 
ATOM      5  C21 UNL     1      40.748  73.637  -9.093  0.00  0.00    +0.041 A 
ATOM      6  C22 UNL     1      40.523  74.345  -7.898  0.00  0.00    +0.172 A 
ENDROOT
BRANCH   4   7
ATOM      7  C6  UNL     1      40.474  71.622 -10.547  0.00  0.00    +0.077 C 
ATOM      8  N1  UNL     1      41.057  72.246 -11.533  0.00  0.00    -0.180 NA
ATOM      9  N2  UNL     1      41.386  71.626 -12.756  0.00  0.00    -0.183 N 
ATOM     10  C14 UNL     1      41.334  70.190 -12.850  0.00  0.00    +0.244 C 
ATOM     11  O2  UNL     1      41.591  69.600 -13.935  0.00  0.00    -0.273 OA
ATOM     12  C15 UNL     1      41.033  69.411 -11.595  0.00  0.00    +0.089 C 
ATOM     13  C16 UNL     1      40.544  67.972 -11.851  0.00  0.00    +0.035 C 
ATOM     14  C17 UNL     1      39.103  67.904 -12.283  0.00  0.00    -0.030 C 
ATOM     15  C18 UNL     1      38.214  68.863 -11.985  0.00  0.00    -0.030 C 
ATOM     16  C19 UNL     1      38.614  70.199 -11.415  0.00  0.00    +0.032 C 
ATOM     17  C20 UNL     1      40.006  70.190 -10.746  0.00  0.00    +0.055 C 
BRANCH   9  18
ATOM     18  C7  UNL     1      41.711  72.474 -13.913  0.00  0.00    +0.099 C 
ATOM     19  C8  UNL     1      40.436  72.689 -14.758  0.00  0.00    +0.022 C 
ATOM     20  C9  UNL     1      40.563  73.793 -15.822  0.00  0.00    +0.002 C 
ATOM     21  C10 UNL     1      40.147  75.171 -15.280  0.00  0.00    +0.000 C 
ATOM     22  C11 UNL     1      41.188  75.806 -14.352  0.00  0.00    +0.000 C 
ATOM     23  C12 UNL     1      41.511  74.953 -13.117  0.00  0.00    +0.002 C 
ATOM     24  C13 UNL     1      42.434  73.765 -13.452  0.00  0.00    +0.022 C 
ENDBRANCH   9  18
ENDBRANCH   4   7
BRANCH   1  26
ATOM     25  C1  UNL     1      38.957  73.970  -4.538  0.00  0.00    +0.253 C 
ATOM     26  O1  UNL     1      39.459  74.533  -5.744  0.00  0.00    -0.468 OA
ENDBRANCH   1  26
BRANCH   6  27
ATOM     27  O3  UNL     1      41.155  75.569  -7.618  0.00  0.00    -0.472 OA
BRANCH  27  28
ATOM     28  C23 UNL     1      42.373  75.735  -6.885  0.00  0.00    +0.206 C 
BRANCH  28  29
ATOM     29  C24 UNL     1      43.583  75.882  -7.817  0.00  0.00    +0.051 C 
BRANCH  29  30
ATOM     30  C25 UNL     1      44.800  75.091  -7.311  0.00  0.00    +0.051 C 
BRANCH  30  31
ATOM     31  C26 UNL     1      44.848  75.021  -5.776  0.00  0.00    +0.206 C 
BRANCH  31  32
ATOM     32  O4  UNL     1      45.888  74.157  -5.313  0.00  0.00    -0.475 OA
BRANCH  32  33
ATOM     33  C27 UNL     1      45.769  72.774  -5.102  0.00  0.00    +0.139 A 
ATOM     34  C28 UNL     1      45.026  72.226  -4.041  0.00  0.00    +0.037 A 
ATOM     35  C29 UNL     1      44.903  70.839  -3.910  0.00  0.00    +0.006 A 
ATOM     36  C30 UNL     1      45.526  69.975  -4.827  0.00  0.00    +0.040 A 
ATOM     37  C32 UNL     1      46.292  70.529  -5.868  0.00  0.00    +0.006 A 
ATOM     38  C33 UNL     1      46.415  71.914  -5.995  0.00  0.00    +0.037 A 
BRANCH  36  39
ATOM     39  C31 UNL     1      45.351  68.509  -4.698  0.00  0.00    +0.208 A 
ATOM     40  N3  UNL     1      45.674  67.619  -5.657  0.00  0.00    -0.106 NA
ATOM     41  N4  UNL     1      45.398  66.432  -5.137  0.00  0.00    -0.021 NA
ATOM     42  N5  UNL     1      44.928  66.576  -3.907  0.00  0.00    -0.021 NA
ATOM     43  N6  UNL     1      44.891  67.863  -3.611  0.00  0.00    -0.106 NA
ENDBRANCH  36  39
ENDBRANCH  32  33
ENDBRANCH  31  32
ENDBRANCH  30  31
ENDBRANCH  29  30
ENDBRANCH  28  29
ENDBRANCH  27  28
ENDBRANCH   6  27
TORSDOF 11
ENDMDL
MODEL 5
REMARK VINA RESULT:      -8.4      4.361      9.391
REMARK  Name = ./data/interface_1/pdb/l1c0.pdb
REMARK  11 active torsions:
REMARK  status: ('A' for Active; 'I' for Inactive)
REMARK    1  A    between atoms: O1_2  and  C2_3
REMARK    2  A    between atoms: C5_6  and  C6_7
REMARK    3  A    between atoms: N2_9  and  C7_10
REMARK    4  A    between atoms: C22_26  and  O3_27
REMARK    5  A    between atoms: O3_27  and  C23_28
REMARK    6  A    between atoms: C23_28  and  C24_29
REMARK    7  A    between atoms: C24_29  and  C25_30
REMARK    8  A    between atoms: C25_30  and  C26_31
REMARK    9  A    between atoms: C26_31  and  O4_32
REMARK   10  A    between atoms: O4_32  and  C27_33
REMARK   11  A    between atoms: C30_36  and  C31_37
REMARK                            x       y       z     vdW  Elec       q    Type
REMARK                         _______ _______ _______ _____ _____    ______ ____
ROOT
ATOM      1  C2  UNL     1      37.654  69.405  -8.999  0.00  0.00    +0.172 A 
ATOM      2  C3  UNL     1      37.031  70.188  -8.010  0.00  0.00    +0.040 A 
ATOM      3  C4  UNL     1      37.590  71.403  -7.612  0.00  0.00    +0.005 A 
ATOM      4  C5  UNL     1      38.787  71.859  -8.185  0.00  0.00    +0.018 A 
ATOM      5  C21 UNL     1      39.425  71.059  -9.150  0.00  0.00    +0.041 A 
ATOM      6  C22 UNL     1      38.858  69.842  -9.571  0.00  0.00    +0.172 A 
ENDROOT
BRANCH   4   7
ATOM      7  C6  UNL     1      39.354  73.189  -7.841  0.00  0.00    +0.077 C 
ATOM      8  N1  UNL     1      40.158  73.759  -8.694  0.00  0.00    -0.180 NA
ATOM      9  N2  UNL     1      40.790  74.998  -8.456  0.00  0.00    -0.183 N 
ATOM     10  C14 UNL     1      40.340  75.813  -7.358  0.00  0.00    +0.244 C 
ATOM     11  O2  UNL     1      40.899  76.912  -7.092  0.00  0.00    -0.273 OA
ATOM     12  C15 UNL     1      39.136  75.347  -6.580  0.00  0.00    +0.089 C 
ATOM     13  C16 UNL     1      39.003  75.990  -5.185  0.00  0.00    +0.035 C 
ATOM     14  C17 UNL     1      39.937  75.394  -4.166  0.00  0.00    -0.030 C 
ATOM     15  C18 UNL     1      40.432  74.153  -4.279  0.00  0.00    -0.030 C 
ATOM     16  C19 UNL     1      40.306  73.334  -5.537  0.00  0.00    +0.032 C 
ATOM     17  C20 UNL     1      39.166  73.808  -6.466  0.00  0.00    +0.055 C 
BRANCH   9  18
ATOM     18  C7  UNL     1      41.930  75.384  -9.302  0.00  0.00    +0.099 C 
ATOM     19  C8  UNL     1      42.624  74.110  -9.830  0.00  0.00    +0.022 C 
ATOM     20  C9  UNL     1      43.637  74.365 -10.959  0.00  0.00    +0.002 C 
ATOM     21  C10 UNL     1      42.985  74.297 -12.350  0.00  0.00    +0.000 C 
ATOM     22  C11 UNL     1      42.139  75.528 -12.693  0.00  0.00    +0.000 C 
ATOM     23  C12 UNL     1      40.991  75.778 -11.707  0.00  0.00    +0.002 C 
ATOM     24  C13 UNL     1      41.480  76.399 -10.384  0.00  0.00    +0.022 C 
ENDBRANCH   9  18
ENDBRANCH   4   7
BRANCH   1  26
ATOM     25  C1  UNL     1      35.709  67.901  -9.451  0.00  0.00    +0.253 C 
ATOM     26  O1  UNL     1      37.101  68.198  -9.452  0.00  0.00    -0.468 OA
ENDBRANCH   1  26
BRANCH   6  27
ATOM     27  O3  UNL     1      39.450  69.040 -10.563  0.00  0.00    -0.472 OA
BRANCH  27  28
ATOM     28  C23 UNL     1      38.843  68.655 -11.800  0.00  0.00    +0.206 C 
BRANCH  28  29
ATOM     29  C24 UNL     1      39.851  67.980 -12.741  0.00  0.00    +0.051 C 
BRANCH  29  30
ATOM     30  C25 UNL     1      41.141  67.577 -12.009  0.00  0.00    +0.051 C 
BRANCH  30  31
ATOM     31  C26 UNL     1      42.335  68.458 -12.411  0.00  0.00    +0.206 C 
BRANCH  31  32
ATOM     32  O4  UNL     1      42.024  69.851 -12.321  0.00  0.00    -0.475 OA
BRANCH  32  33
ATOM     33  C27 UNL     1      41.709  70.689 -13.402  0.00  0.00    +0.139 A 
ATOM     34  C28 UNL     1      42.364  70.611 -14.644  0.00  0.00    +0.037 A 
ATOM     35  C29 UNL     1      41.974  71.439 -15.700  0.00  0.00    +0.006 A 
ATOM     36  C30 UNL     1      40.931  72.367 -15.534  0.00  0.00    +0.040 A 
ATOM     37  C32 UNL     1      40.301  72.462 -14.281  0.00  0.00    +0.006 A 
ATOM     38  C33 UNL     1      40.694  71.634 -13.227  0.00  0.00    +0.037 A 
BRANCH  36  39
ATOM     39  C31 UNL     1      40.502  73.210 -16.676  0.00  0.00    +0.208 A 
ATOM     40  N3  UNL     1      41.349  73.833 -17.518  0.00  0.00    -0.106 NA
ATOM     41  N4  UNL     1      40.573  74.443 -18.403  0.00  0.00    -0.021 NA
ATOM     42  N5  UNL     1      39.300  74.206 -18.125  0.00  0.00    -0.021 NA
ATOM     43  N6  UNL     1      39.231  73.438 -17.052  0.00  0.00    -0.106 NA
ENDBRANCH  36  39
ENDBRANCH  32  33
ENDBRANCH  31  32
ENDBRANCH  30  31
ENDBRANCH  29  30
ENDBRANCH  28  29
ENDBRANCH  27  28
ENDBRANCH   6  27
TORSDOF 11
ENDMDL
MODEL 6
REMARK VINA RESULT:      -8.2      3.240      9.248
REMARK  Name = ./data/interface_1/pdb/l1c0.pdb
REMARK  11 active torsions:
REMARK  status: ('A' for Active; 'I' for Inactive)
REMARK    1  A    between atoms: O1_2  and  C2_3
REMARK    2  A    between atoms: C5_6  and  C6_7
REMARK    3  A    between atoms: N2_9  and  C7_10
REMARK    4  A    between atoms: C22_26  and  O3_27
REMARK    5  A    between atoms: O3_27  and  C23_28
REMARK    6  A    between atoms: C23_28  and  C24_29
REMARK    7  A    between atoms: C24_29  and  C25_30
REMARK    8  A    between atoms: C25_30  and  C26_31
REMARK    9  A    between atoms: C26_31  and  O4_32
REMARK   10  A    between atoms: O4_32  and  C27_33
REMARK   11  A    between atoms: C30_36  and  C31_37
REMARK                            x       y       z     vdW  Elec       q    Type
REMARK                         _______ _______ _______ _____ _____    ______ ____
ROOT
ATOM      1  C2  UNL     1      40.822  74.326  -9.806  0.00  0.00    +0.172 A 
ATOM      2  C3  UNL     1      41.512  75.504  -9.470  0.00  0.00    +0.040 A 
ATOM      3  C4  UNL     1      41.808  75.796  -8.138  0.00  0.00    +0.005 A 
ATOM      4  C5  UNL     1      41.416  74.922  -7.112  0.00  0.00    +0.018 A 
ATOM      5  C21 UNL     1      40.697  73.761  -7.448  0.00  0.00    +0.041 A 
ATOM      6  C22 UNL     1      40.411  73.450  -8.791  0.00  0.00    +0.172 A 
ENDROOT
BRANCH   4   7
ATOM      7  C6  UNL     1      41.797  75.166  -5.697  0.00  0.00    +0.077 C 
ATOM      8  N1  UNL     1      42.950  74.724  -5.281  0.00  0.00    -0.180 NA
ATOM      9  N2  UNL     1      43.398  74.857  -3.950  0.00  0.00    -0.183 N 
ATOM     10  C14 UNL     1      42.695  75.747  -3.061  0.00  0.00    +0.244 C 
ATOM     11  O2  UNL     1      43.044  75.870  -1.855  0.00  0.00    -0.273 OA
ATOM     12  C15 UNL     1      41.575  76.577  -3.634  0.00  0.00    +0.089 C 
ATOM     13  C16 UNL     1      40.598  77.127  -2.576  0.00  0.00    +0.035 C 
ATOM     14  C17 UNL     1      39.624  76.095  -2.073  0.00  0.00    -0.030 C 
ATOM     15  C18 UNL     1      39.284  75.014  -2.791  0.00  0.00    -0.030 C 
ATOM     16  C19 UNL     1      40.015  74.600  -4.041  0.00  0.00    +0.032 C 
ATOM     17  C20 UNL     1      40.816  75.749  -4.693  0.00  0.00    +0.055 C 
BRANCH   9  18
ATOM     18  C7  UNL     1      44.531  74.035  -3.499  0.00  0.00    +0.099 C 
ATOM     19  C8  UNL     1      44.006  72.909  -2.582  0.00  0.00    +0.022 C 
ATOM     20  C9  UNL     1      45.036  71.806  -2.285  0.00  0.00    +0.002 C 
ATOM     21  C10 UNL     1      44.979  70.666  -3.316  0.00  0.00    +0.000 C 
ATOM     22  C11 UNL     1      45.605  71.027  -4.667  0.00  0.00    +0.000 C 
ATOM     23  C12 UNL     1      44.946  72.237  -5.345  0.00  0.00    +0.002 C 
ATOM     24  C13 UNL     1      45.380  73.572  -4.710  0.00  0.00    +0.022 C 
ENDBRANCH   9  18
ENDBRANCH   4   7
BRANCH   1  26
ATOM     25  C1  UNL     1      41.070  74.657 -12.272  0.00  0.00    +0.253 C 
ATOM     26  O1  UNL     1      40.541  73.982 -11.137  0.00  0.00    -0.468 OA
ENDBRANCH   1  26
BRANCH   6  27
ATOM     27  O3  UNL     1      39.731  72.277  -9.163  0.00  0.00    -0.472 OA
BRANCH  27  28
ATOM     28  C23 UNL     1      39.047  71.388  -8.274  0.00  0.00    +0.206 C 
BRANCH  28  29
ATOM     29  C24 UNL     1      39.015  69.953  -8.819  0.00  0.00    +0.051 C 
BRANCH  29  30
ATOM     30  C25 UNL     1      37.578  69.449  -9.030  0.00  0.00    +0.051 C 
BRANCH  30  31
ATOM     31  C26 UNL     1      37.258  69.217 -10.516  0.00  0.00    +0.206 C 
BRANCH  31  32
ATOM     32  O4  UNL     1      38.329  68.559 -11.196  0.00  0.00    -0.475 OA
BRANCH  32  33
ATOM     33  C27 UNL     1      39.250  69.174 -12.060  0.00  0.00    +0.139 A 
ATOM     34  C28 UNL     1      39.263  70.560 -12.297  0.00  0.00    +0.037 A 
ATOM     35  C29 UNL     1      40.235  71.123 -13.130  0.00  0.00    +0.006 A 
ATOM     36  C30 UNL     1      41.203  70.314 -13.749  0.00  0.00    +0.040 A 
ATOM     37  C32 UNL     1      41.166  68.925 -13.532  0.00  0.00    +0.006 A 
ATOM     38  C33 UNL     1      40.193  68.366 -12.700  0.00  0.00    +0.037 A 
BRANCH  36  39
ATOM     39  C31 UNL     1      42.251  70.932 -14.596  0.00  0.00    +0.208 A 
ATOM     40  N3  UNL     1      42.402  72.260 -14.768  0.00  0.00    -0.106 NA
ATOM     41  N4  UNL     1      43.458  72.390 -15.558  0.00  0.00    -0.021 NA
ATOM     42  N5  UNL     1      43.944  71.196 -15.861  0.00  0.00    -0.021 NA
ATOM     43  N6  UNL     1      43.208  70.270 -15.272  0.00  0.00    -0.106 NA
ENDBRANCH  36  39
ENDBRANCH  32  33
ENDBRANCH  31  32
ENDBRANCH  30  31
ENDBRANCH  29  30
ENDBRANCH  28  29
ENDBRANCH  27  28
ENDBRANCH   6  27
TORSDOF 11
ENDMDL
MODEL 7
REMARK VINA RESULT:      -8.1      3.667      8.964
REMARK  Name = ./data/interface_1/pdb/l1c0.pdb
REMARK  11 active torsions:
REMARK  status: ('A' for Active; 'I' for Inactive)
REMARK    1  A    between atoms: O1_2  and  C2_3
REMARK    2  A    between atoms: C5_6  and  C6_7
REMARK    3  A    between atoms: N2_9  and  C7_10
REMARK    4  A    between atoms: C22_26  and  O3_27
REMARK    5  A    between atoms: O3_27  and  C23_28
REMARK    6  A    between atoms: C23_28  and  C24_29
REMARK    7  A    between atoms: C24_29  and  C25_30
REMARK    8  A    between atoms: C25_30  and  C26_31
REMARK    9  A    between atoms: C26_31  and  O4_32
REMARK   10  A    between atoms: O4_32  and  C27_33
REMARK   11  A    between atoms: C30_36  and  C31_37
REMARK                            x       y       z     vdW  Elec       q    Type
REMARK                         _______ _______ _______ _____ _____    ______ ____
ROOT
ATOM      1  C2  UNL     1      37.692  69.607  -9.064  0.00  0.00    +0.172 A 
ATOM      2  C3  UNL     1      37.042  70.373  -8.079  0.00  0.00    +0.040 A 
ATOM      3  C4  UNL     1      37.669  71.487  -7.520  0.00  0.00    +0.005 A 
ATOM      4  C5  UNL     1      38.961  71.857  -7.926  0.00  0.00    +0.018 A 
ATOM      5  C21 UNL     1      39.621  71.071  -8.887  0.00  0.00    +0.041 A 
ATOM      6  C22 UNL     1      38.989  69.957  -9.470  0.00  0.00    +0.172 A 
ENDROOT
BRANCH   4   7
ATOM      7  C6  UNL     1      39.613  73.088  -7.410  0.00  0.00    +0.077 C 
ATOM      8  N1  UNL     1      40.865  73.296  -7.704  0.00  0.00    -0.180 NA
ATOM      9  N2  UNL     1      41.599  74.406  -7.234  0.00  0.00    -0.183 N 
ATOM     10  C14 UNL     1      40.893  75.504  -6.626  0.00  0.00    +0.244 C 
ATOM     11  O2  UNL     1      41.515  76.500  -6.164  0.00  0.00    -0.273 OA
ATOM     12  C15 UNL     1      39.387  75.460  -6.622  0.00  0.00    +0.089 C 
ATOM     13  C16 UNL     1      38.734  76.391  -5.582  0.00  0.00    +0.035 C 
ATOM     14  C17 UNL     1      38.790  75.846  -4.180  0.00  0.00    -0.030 C 
ATOM     15  C18 UNL     1      38.899  74.534  -3.920  0.00  0.00    -0.030 C 
ATOM     16  C19 UNL     1      39.222  73.515  -4.980  0.00  0.00    +0.032 C 
ATOM     17  C20 UNL     1      38.920  74.003  -6.414  0.00  0.00    +0.055 C 
BRANCH   9  18
ATOM     18  C7  UNL     1      43.067  74.373  -7.324  0.00  0.00    +0.099 C 
ATOM     19  C8  UNL     1      43.607  75.819  -7.310  0.00  0.00    +0.022 C 
ATOM     20  C9  UNL     1      45.127  75.923  -7.097  0.00  0.00    +0.002 C 
ATOM     21  C10 UNL     1      45.498  76.025  -5.608  0.00  0.00    +0.000 C 
ATOM     22  C11 UNL     1      45.381  74.696  -4.853  0.00  0.00    +0.000 C 
ATOM     23  C12 UNL     1      43.971  74.091  -4.891  0.00  0.00    +0.002 C 
ATOM     24  C13 UNL     1      43.654  73.428  -6.246  0.00  0.00    +0.022 C 
ENDBRANCH   9  18
ENDBRANCH   4   7
BRANCH   1  26
ATOM     25  C1  UNL     1      36.566  68.503 -11.004  0.00  0.00    +0.253 C 
ATOM     26  O1  UNL     1      37.077  68.504  -9.677  0.00  0.00    -0.468 OA
ENDBRANCH   1  26
BRANCH   6  27
ATOM     27  O3  UNL     1      39.605  69.176 -10.463  0.00  0.00    -0.472 OA
BRANCH  27  28
ATOM     28  C23 UNL     1      40.816  68.429 -10.310  0.00  0.00    +0.206 C 
BRANCH  28  29
ATOM     29  C24 UNL     1      41.150  67.622 -11.572  0.00  0.00    +0.051 C 
BRANCH  29  30
ATOM     30  C25 UNL     1      40.636  68.309 -12.847  0.00  0.00    +0.051 C 
BRANCH  30  31
ATOM     31  C26 UNL     1      41.696  69.226 -13.478  0.00  0.00    +0.206 C 
BRANCH  31  32
ATOM     32  O4  UNL     1      41.131  70.453 -13.947  0.00  0.00    -0.475 OA
BRANCH  32  33
ATOM     33  C27 UNL     1      41.159  71.679 -13.265  0.00  0.00    +0.139 A 
ATOM     34  C28 UNL     1      41.007  72.917 -13.915  0.00  0.00    +0.037 A 
ATOM     35  C29 UNL     1      40.994  74.104 -13.177  0.00  0.00    +0.006 A 
ATOM     36  C30 UNL     1      41.144  74.080 -11.779  0.00  0.00    +0.040 A 
ATOM     37  C32 UNL     1      41.326  72.841 -11.138  0.00  0.00    +0.006 A 
ATOM     38  C33 UNL     1      41.339  71.657 -11.879  0.00  0.00    +0.037 A 
BRANCH  36  39
ATOM     39  C31 UNL     1      41.088  75.344 -11.007  0.00  0.00    +0.208 A 
ATOM     40  N3  UNL     1      39.966  75.844 -10.452  0.00  0.00    -0.106 NA
ATOM     41  N4  UNL     1      40.350  76.952  -9.833  0.00  0.00    -0.021 NA
ATOM     42  N5  UNL     1      41.652  77.130  -9.993  0.00  0.00    -0.021 NA
ATOM     43  N6  UNL     1      42.135  76.139 -10.721  0.00  0.00    -0.106 NA
ENDBRANCH  36  39
ENDBRANCH  32  33
ENDBRANCH  31  32
ENDBRANCH  30  31
ENDBRANCH  29  30
ENDBRANCH  28  29
ENDBRANCH  27  28
ENDBRANCH   6  27
TORSDOF 11
ENDMDL
MODEL 8
REMARK VINA RESULT:      -8.1      2.153      3.677
REMARK  Name = ./data/interface_1/pdb/l1c0.pdb
REMARK  11 active torsions:
REMARK  status: ('A' for Active; 'I' for Inactive)
REMARK    1  A    between atoms: O1_2  and  C2_3
REMARK    2  A    between atoms: C5_6  and  C6_7
REMARK    3  A    between atoms: N2_9  and  C7_10
REMARK    4  A    between atoms: C22_26  and  O3_27
REMARK    5  A    between atoms: O3_27  and  C23_28
REMARK    6  A    between atoms: C23_28  and  C24_29
REMARK    7  A    between atoms: C24_29  and  C25_30
REMARK    8  A    between atoms: C25_30  and  C26_31
REMARK    9  A    between atoms: C26_31  and  O4_32
REMARK   10  A    between atoms: O4_32  and  C27_33
REMARK   11  A    between atoms: C30_36  and  C31_37
REMARK                            x       y       z     vdW  Elec       q    Type
REMARK                         _______ _______ _______ _____ _____    ______ ____
ROOT
ATOM      1  C2  UNL     1      44.747  74.960 -10.046  0.00  0.00    +0.172 A 
ATOM      2  C3  UNL     1      44.893  75.286 -11.407  0.00  0.00    +0.040 A 
ATOM      3  C4  UNL     1      43.993  74.794 -12.353  0.00  0.00    +0.005 A 
ATOM      4  C5  UNL     1      42.932  73.961 -11.964  0.00  0.00    +0.018 A 
ATOM      5  C21 UNL     1      42.808  73.611 -10.608  0.00  0.00    +0.041 A 
ATOM      6  C22 UNL     1      43.700  74.118  -9.644  0.00  0.00    +0.172 A 
ENDROOT
BRANCH   4   7
ATOM      7  C6  UNL     1      41.912  73.499 -12.939  0.00  0.00    +0.077 C 
ATOM      8  N1  UNL     1      41.090  72.555 -12.575  0.00  0.00    -0.180 NA
ATOM      9  N2  UNL     1      40.111  72.006 -13.430  0.00  0.00    -0.183 N 
ATOM     10  C14 UNL     1      39.807  72.678 -14.667  0.00  0.00    +0.244 C 
ATOM     11  O2  UNL     1      38.961  72.203 -15.474  0.00  0.00    -0.273 OA
ATOM     12  C15 UNL     1      40.477  74.001 -14.936  0.00  0.00    +0.089 C 
ATOM     13  C16 UNL     1      40.474  74.417 -16.420  0.00  0.00    +0.035 C 
ATOM     14  C17 UNL     1      41.504  73.688 -17.242  0.00  0.00    -0.030 C 
ATOM     15  C18 UNL     1      42.612  73.156 -16.704  0.00  0.00    -0.030 C 
ATOM     16  C19 UNL     1      42.814  73.018 -15.218  0.00  0.00    +0.032 C 
ATOM     17  C20 UNL     1      41.919  73.963 -14.386  0.00  0.00    +0.055 C 
BRANCH   9  18
ATOM     18  C7  UNL     1      39.480  70.731 -13.057  0.00  0.00    +0.099 C 
ATOM     19  C8  UNL     1      40.524  69.598 -13.165  0.00  0.00    +0.022 C 
ATOM     20  C9  UNL     1      40.085  68.272 -12.521  0.00  0.00    +0.002 C 
ATOM     21  C10 UNL     1      40.497  68.183 -11.041  0.00  0.00    +0.000 C 
ATOM     22  C11 UNL     1      39.631  69.039 -10.110  0.00  0.00    +0.000 C 
ATOM     23  C12 UNL     1      39.648  70.534 -10.458  0.00  0.00    +0.002 C 
ATOM     24  C13 UNL     1      38.772  70.860 -11.684  0.00  0.00    +0.022 C 
ENDBRANCH   9  18
ENDBRANCH   4   7
BRANCH   1  26
ATOM     25  C1  UNL     1      45.683  76.837  -8.686  0.00  0.00    +0.253 C 
ATOM     26  O1  UNL     1      45.609  75.467  -9.062  0.00  0.00    -0.468 OA
ENDBRANCH   1  26
BRANCH   6  27
ATOM     27  O3  UNL     1      43.577  73.820  -8.275  0.00  0.00    -0.472 OA
BRANCH  27  28
ATOM     28  C23 UNL     1      42.445  74.115  -7.452  0.00  0.00    +0.206 C 
BRANCH  28  29
ATOM     29  C24 UNL     1      42.800  75.097  -6.327  0.00  0.00    +0.051 C 
BRANCH  29  30
ATOM     30  C25 UNL     1      43.491  74.395  -5.147  0.00  0.00    +0.051 C 
BRANCH  30  31
ATOM     31  C26 UNL     1      44.917  74.919  -4.915  0.00  0.00    +0.206 C 
BRANCH  31  32
ATOM     32  O4  UNL     1      45.698  74.013  -4.130  0.00  0.00    -0.475 OA
BRANCH  32  33
ATOM     33  C27 UNL     1      45.632  72.612  -4.192  0.00  0.00    +0.139 A 
ATOM     34  C28 UNL     1      45.011  71.834  -3.199  0.00  0.00    +0.037 A 
ATOM     35  C29 UNL     1      44.934  70.445  -3.339  0.00  0.00    +0.006 A 
ATOM     36  C30 UNL     1      45.483  69.807  -4.465  0.00  0.00    +0.040 A 
ATOM     37  C32 UNL     1      46.130  70.588  -5.439  0.00  0.00    +0.006 A 
ATOM     38  C33 UNL     1      46.207  71.975  -5.296  0.00  0.00    +0.037 A 
BRANCH  36  39
ATOM     39  C31 UNL     1      45.357  68.338  -4.617  0.00  0.00    +0.208 A 
ATOM     40  N3  UNL     1      45.704  67.658  -5.728  0.00  0.00    -0.106 NA
ATOM     41  N4  UNL     1      45.469  66.385  -5.444  0.00  0.00    -0.021 NA
ATOM     42  N5  UNL     1      45.000  66.278  -4.210  0.00  0.00    -0.021 NA
ATOM     43  N6  UNL     1      44.922  67.483  -3.674  0.00  0.00    -0.106 NA
ENDBRANCH  36  39
ENDBRANCH  32  33
ENDBRANCH  31  32
ENDBRANCH  30  31
ENDBRANCH  29  30
ENDBRANCH  28  29
ENDBRANCH  27  28
ENDBRANCH   6  27
TORSDOF 11
ENDMDL
MODEL 9
REMARK VINA RESULT:      -8.1      4.584      8.952
REMARK  Name = ./data/interface_1/pdb/l1c0.pdb
REMARK  11 active torsions:
REMARK  status: ('A' for Active; 'I' for Inactive)
REMARK    1  A    between atoms: O1_2  and  C2_3
REMARK    2  A    between atoms: C5_6  and  C6_7
REMARK    3  A    between atoms: N2_9  and  C7_10
REMARK    4  A    between atoms: C22_26  and  O3_27
REMARK    5  A    between atoms: O3_27  and  C23_28
REMARK    6  A    between atoms: C23_28  and  C24_29
REMARK    7  A    between atoms: C24_29  and  C25_30
REMARK    8  A    between atoms: C25_30  and  C26_31
REMARK    9  A    between atoms: C26_31  and  O4_32
REMARK   10  A    between atoms: O4_32  and  C27_33
REMARK   11  A    between atoms: C30_36  and  C31_37
REMARK                            x       y       z     vdW  Elec       q    Type
REMARK                         _______ _______ _______ _____ _____    ______ ____
ROOT
ATOM      1  C2  UNL     1      40.646  73.290 -16.634  0.00  0.00    +0.172 A 
ATOM      2  C3  UNL     1      39.731  73.408 -15.572  0.00  0.00    +0.040 A 
ATOM      3  C4  UNL     1      40.182  73.647 -14.273  0.00  0.00    +0.005 A 
ATOM      4  C5  UNL     1      41.555  73.767 -14.004  0.00  0.00    +0.018 A 
ATOM      5  C21 UNL     1      42.468  73.616 -15.063  0.00  0.00    +0.041 A 
ATOM      6  C22 UNL     1      42.021  73.393 -16.379  0.00  0.00    +0.172 A 
ENDROOT
BRANCH   4   7
ATOM      7  C6  UNL     1      42.052  74.109 -12.647  0.00  0.00    +0.077 C 
ATOM      8  N1  UNL     1      41.227  74.016 -11.643  0.00  0.00    -0.180 NA
ATOM      9  N2  UNL     1      41.574  74.357 -10.319  0.00  0.00    -0.183 N 
ATOM     10  C14 UNL     1      42.961  74.563  -9.990  0.00  0.00    +0.244 C 
ATOM     11  O2  UNL     1      43.310  74.900  -8.826  0.00  0.00    -0.273 OA
ATOM     12  C15 UNL     1      43.987  74.294 -11.061  0.00  0.00    +0.089 C 
ATOM     13  C16 UNL     1      45.353  74.961 -10.802  0.00  0.00    +0.035 C 
ATOM     14  C17 UNL     1      45.362  76.434 -11.112  0.00  0.00    -0.030 C 
ATOM     15  C18 UNL     1      44.504  76.995 -11.978  0.00  0.00    -0.030 C 
ATOM     16  C19 UNL     1      43.305  76.267 -12.527  0.00  0.00    +0.032 C 
ATOM     17  C20 UNL     1      43.423  74.729 -12.430  0.00  0.00    +0.055 C 
BRANCH   9  18
ATOM     18  C7  UNL     1      40.499  74.552  -9.334  0.00  0.00    +0.099 C 
ATOM     19  C8  UNL     1      40.898  73.870  -8.007  0.00  0.00    +0.022 C 
ATOM     20  C9  UNL     1      40.009  74.249  -6.810  0.00  0.00    +0.002 C 
ATOM     21  C10 UNL     1      40.544  75.480  -6.059  0.00  0.00    +0.000 C 
ATOM     22  C11 UNL     1      40.296  76.803  -6.792  0.00  0.00    +0.000 C 
ATOM     23  C12 UNL     1      40.930  76.859  -8.188  0.00  0.00    +0.002 C 
ATOM     24  C13 UNL     1      40.128  76.054  -9.229  0.00  0.00    +0.022 C 
ENDBRANCH   9  18
ENDBRANCH   4   7
BRANCH   1  26
ATOM     25  C1  UNL     1      38.875  72.885 -18.352  0.00  0.00    +0.253 C 
ATOM     26  O1  UNL     1      40.227  73.088 -17.958  0.00  0.00    -0.468 OA
ENDBRANCH   1  26
BRANCH   6  27
ATOM     27  O3  UNL     1      42.907  73.280 -17.465  0.00  0.00    -0.472 OA
BRANCH  27  28
ATOM     28  C23 UNL     1      43.999  72.361 -17.562  0.00  0.00    +0.206 C 
BRANCH  28  29
ATOM     29  C24 UNL     1      43.532  70.906 -17.424  0.00  0.00    +0.051 C 
BRANCH  29  30
ATOM     30  C25 UNL     1      43.731  70.371 -15.996  0.00  0.00    +0.051 C 
BRANCH  30  31
ATOM     31  C26 UNL     1      42.398  70.003 -15.324  0.00  0.00    +0.206 C 
BRANCH  31  32
ATOM     32  O4  UNL     1      42.575  69.629 -13.956  0.00  0.00    -0.475 OA
BRANCH  32  33
ATOM     33  C27 UNL     1      41.572  69.623 -12.973  0.00  0.00    +0.139 A 
ATOM     34  C28 UNL     1      40.498  70.531 -12.976  0.00  0.00    +0.037 A 
ATOM     35  C29 UNL     1      39.502  70.447 -11.999  0.00  0.00    +0.006 A 
ATOM     36  C30 UNL     1      39.564  69.463 -10.996  0.00  0.00    +0.040 A 
ATOM     37  C32 UNL     1      40.657  68.579 -10.981  0.00  0.00    +0.006 A 
ATOM     38  C33 UNL     1      41.651  68.666 -11.958  0.00  0.00    +0.037 A 
BRANCH  36  39
ATOM     39  C31 UNL     1      38.479  69.362  -9.992  0.00  0.00    +0.208 A 
ATOM     40  N3  UNL     1      38.280  70.250  -8.998  0.00  0.00    -0.106 NA
ATOM     41  N4  UNL     1      37.204  69.817  -8.356  0.00  0.00    -0.021 NA
ATOM     42  N5  UNL     1      36.752  68.711  -8.927  0.00  0.00    -0.021 NA
ATOM     43  N6  UNL     1      37.531  68.407  -9.951  0.00  0.00    -0.106 NA
ENDBRANCH  36  39
ENDBRANCH  32  33
ENDBRANCH  31  32
ENDBRANCH  30  31
ENDBRANCH  29  30
ENDBRANCH  28  29
ENDBRANCH  27  28
ENDBRANCH   6  27
TORSDOF 11
ENDMDL
