MODEL 1
REMARK VINA RESULT:      -8.9      0.000      0.000
REMARK  Name = ./data/interface_1/pdb/l0c2.pdb
REMARK  11 active torsions:
REMARK  status: ('A' for Active; 'I' for Inactive)
REMARK    1  A    between atoms: O1_2  and  C2_3
REMARK    2  A    between atoms: C5_6  and  C6_7
REMARK    3  A    between atoms: N2_9  and  C7_10
REMARK    4  A    between atoms: C19_23  and  O3_24
REMARK    5  A    between atoms: O3_24  and  C20_25
REMARK    6  A    between atoms: C20_25  and  C21_26
REMARK    7  A    between atoms: C21_26  and  C22_27
REMARK    8  A    between atoms: C22_27  and  C23_28
REMARK    9  A    between atoms: C23_28  and  O4_29
REMARK   10  A    between atoms: O4_29  and  C24_30
REMARK   11  A    between atoms: C27_33  and  C28_34
REMARK                            x       y       z     vdW  Elec       q    Type
REMARK                         _______ _______ _______ _____ _____    ______ ____
ROOT
ATOM      1  C2  UNL     1      39.894  74.579  -5.263  0.00  0.00    +0.172 A 
ATOM      2  C3  UNL     1      39.171  73.493  -5.783  0.00  0.00    +0.040 A 
ATOM      3  C4  UNL     1      39.353  73.085  -7.106  0.00  0.00    +0.005 A 
ATOM      4  C5  UNL     1      40.270  73.743  -7.942  0.00  0.00    +0.019 A 
ATOM      5  C18 UNL     1      40.983  74.838  -7.417  0.00  0.00    +0.041 A 
ATOM      6  C19 UNL     1      40.799  75.260  -6.086  0.00  0.00    +0.172 A 
ENDROOT
BRANCH   4   7
ATOM      7  C6  UNL     1      40.511  73.323  -9.357  0.00  0.00    +0.084 C 
ATOM      8  N1  UNL     1      39.939  72.255  -9.830  0.00  0.00    -0.180 NA
ATOM      9  N2  UNL     1      40.340  71.998 -11.141  0.00  0.00    -0.183 N 
ATOM     10  C14 UNL     1      41.305  72.970 -11.484  0.00  0.00    +0.249 C 
ATOM     11  O2  UNL     1      41.943  72.973 -12.571  0.00  0.00    -0.273 OA
ATOM     12  C15 UNL     1      41.461  73.963 -10.375  0.00  0.00    +0.107 C 
ATOM     13  C16 UNL     1      40.984  75.339 -10.868  0.00  0.00    +0.015 C 
ATOM     14  C17 UNL     1      42.918  73.978  -9.889  0.00  0.00    +0.015 C 
BRANCH   9  15
ATOM     15  C7  UNL     1      40.134  70.715 -11.814  0.00  0.00    +0.099 C 
ATOM     16  C8  UNL     1      41.396  69.842 -11.634  0.00  0.00    +0.022 C 
ATOM     17  C9  UNL     1      41.655  68.862 -12.791  0.00  0.00    +0.002 C 
ATOM     18  C10 UNL     1      40.433  68.097 -13.329  0.00  0.00    +0.000 C 
ATOM     19  C11 UNL     1      39.379  67.732 -12.269  0.00  0.00    +0.000 C 
ATOM     20  C12 UNL     1      38.353  68.858 -12.060  0.00  0.00    +0.002 C 
ATOM     21  C13 UNL     1      38.882  70.030 -11.224  0.00  0.00    +0.022 C 
ENDBRANCH   9  15
ENDBRANCH   4   7
BRANCH   1  23
ATOM     22  C1  UNL     1      38.558  75.618  -3.418  0.00  0.00    +0.253 C 
ATOM     23  O1  UNL     1      39.739  75.013  -3.936  0.00  0.00    -0.468 OA
ENDBRANCH   1  23
BRANCH   6  24
ATOM     24  O3  UNL     1      41.500  76.352  -5.548  0.00  0.00    -0.472 OA
BRANCH  24  25
ATOM     25  C20 UNL     1      42.911  76.384  -5.348  0.00  0.00    +0.206 C 
BRANCH  25  26
ATOM     26  C21 UNL     1      43.399  75.011  -4.885  0.00  0.00    +0.051 C 
BRANCH  26  27
ATOM     27  C22 UNL     1      43.410  74.926  -3.352  0.00  0.00    +0.051 C 
BRANCH  27  28
ATOM     28  C23 UNL     1      44.764  74.449  -2.814  0.00  0.00    +0.206 C 
BRANCH  28  29
ATOM     29  O4  UNL     1      44.653  73.197  -2.133  0.00  0.00    -0.475 OA
BRANCH  29  30
ATOM     30  C24 UNL     1      44.815  71.930  -2.716  0.00  0.00    +0.139 A 
ATOM     31  C25 UNL     1      44.501  70.808  -1.941  0.00  0.00    +0.037 A 
ATOM     32  C26 UNL     1      44.633  69.520  -2.467  0.00  0.00    +0.006 A 
ATOM     33  C27 UNL     1      45.102  69.334  -3.778  0.00  0.00    +0.040 A 
ATOM     34  C29 UNL     1      45.423  70.457  -4.555  0.00  0.00    +0.006 A 
ATOM     35  C30 UNL     1      45.268  71.746  -4.035  0.00  0.00    +0.037 A 
BRANCH  33  36
ATOM     36  C28 UNL     1      45.257  67.973  -4.330  0.00  0.00    +0.208 A 
ATOM     37  N3  UNL     1      44.972  66.840  -3.659  0.00  0.00    -0.106 NA
ATOM     38  N4  UNL     1      45.242  65.867  -4.513  0.00  0.00    -0.021 NA
ATOM     39  N5  UNL     1      45.675  66.378  -5.657  0.00  0.00    -0.021 NA
ATOM     40  N6  UNL     1      45.692  67.699  -5.576  0.00  0.00    -0.106 NA
ENDBRANCH  33  36
ENDBRANCH  29  30
ENDBRANCH  28  29
ENDBRANCH  27  28
ENDBRANCH  26  27
ENDBRANCH  25  26
ENDBRANCH  24  25
ENDBRANCH   6  24
TORSDOF 11
ENDMDL
MODEL 2
REMARK VINA RESULT:      -8.5      4.715      9.258
REMARK  Name = ./data/interface_1/pdb/l0c2.pdb
REMARK  11 active torsions:
REMARK  status: ('A' for Active; 'I' for Inactive)
REMARK    1  A    between atoms: O1_2  and  C2_3
REMARK    2  A    between atoms: C5_6  and  C6_7
REMARK    3  A    between atoms: N2_9  and  C7_10
REMARK    4  A    between atoms: C19_23  and  O3_24
REMARK    5  A    between atoms: O3_24  and  C20_25
REMARK    6  A    between atoms: C20_25  and  C21_26
REMARK    7  A    between atoms: C21_26  and  C22_27
REMARK    8  A    between atoms: C22_27  and  C23_28
REMARK    9  A    between atoms: C23_28  and  O4_29
REMARK   10  A    between atoms: O4_29  and  C24_30
REMARK   11  A    between atoms: C27_33  and  C28_34
REMARK                            x       y       z     vdW  Elec       q    Type
REMARK                         _______ _______ _______ _____ _____    ______ ____
ROOT
ATOM      1  C2  UNL     1      40.987  74.627 -15.979  0.00  0.00    +0.172 A 
ATOM      2  C3  UNL     1      40.412  75.556 -15.097  0.00  0.00    +0.040 A 
ATOM      3  C4  UNL     1      40.794  75.593 -13.754  0.00  0.00    +0.005 A 
ATOM      4  C5  UNL     1      41.768  74.712 -13.258  0.00  0.00    +0.019 A 
ATOM      5  C18 UNL     1      42.332  73.775 -14.146  0.00  0.00    +0.041 A 
ATOM      6  C19 UNL     1      41.946  73.726 -15.500  0.00  0.00    +0.172 A 
ENDROOT
BRANCH   4   7
ATOM      7  C6  UNL     1      42.221  74.734 -11.833  0.00  0.00    +0.084 C 
ATOM      8  N1  UNL     1      41.512  74.152 -10.911  0.00  0.00    -0.180 NA
ATOM      9  N2  UNL     1      42.065  74.339  -9.645  0.00  0.00    -0.183 N 
ATOM     10  C14 UNL     1      43.192  75.177  -9.799  0.00  0.00    +0.249 C 
ATOM     11  O2  UNL     1      43.873  75.622  -8.836  0.00  0.00    -0.273 OA
ATOM     12  C15 UNL     1      43.435  75.462 -11.248  0.00  0.00    +0.107 C 
ATOM     13  C16 UNL     1      44.776  74.832 -11.660  0.00  0.00    +0.015 C 
ATOM     14  C17 UNL     1      43.388  76.977 -11.498  0.00  0.00    +0.015 C 
BRANCH   9  15
ATOM     15  C7  UNL     1      41.338  74.096  -8.399  0.00  0.00    +0.099 C 
ATOM     16  C8  UNL     1      40.792  75.437  -7.862  0.00  0.00    +0.022 C 
ATOM     17  C9  UNL     1      40.670  75.501  -6.330  0.00  0.00    +0.002 C 
ATOM     18  C10 UNL     1      40.081  74.259  -5.637  0.00  0.00    +0.000 C 
ATOM     19  C11 UNL     1      38.992  73.525  -6.439  0.00  0.00    +0.000 C 
ATOM     20  C12 UNL     1      39.585  72.482  -7.400  0.00  0.00    +0.002 C 
ATOM     21  C13 UNL     1      40.200  73.087  -8.667  0.00  0.00    +0.022 C 
ENDBRANCH   9  15
ENDBRANCH   4   7
BRANCH   1  23
ATOM     22  C1  UNL     1      39.480  73.890 -17.837  0.00  0.00    +0.253 C 
ATOM     23  O1  UNL     1      40.630  74.565 -17.336  0.00  0.00    -0.468 OA
ENDBRANCH   1  23
BRANCH   6  24
ATOM     24  O3  UNL     1      42.496  72.796 -16.397  0.00  0.00    -0.472 OA
BRANCH  24  25
ATOM     25  C20 UNL     1      43.889  72.672 -16.675  0.00  0.00    +0.206 C 
BRANCH  25  26
ATOM     26  C21 UNL     1      44.305  71.204 -16.592  0.00  0.00    +0.051 C 
BRANCH  26  27
ATOM     27  C22 UNL     1      43.079  70.285 -16.687  0.00  0.00    +0.051 C 
BRANCH  27  28
ATOM     28  C23 UNL     1      42.798  69.565 -15.362  0.00  0.00    +0.206 C 
BRANCH  28  29
ATOM     29  O4  UNL     1      42.216  70.442 -14.396  0.00  0.00    -0.475 OA
BRANCH  29  30
ATOM     30  C24 UNL     1      41.241  70.088 -13.449  0.00  0.00    +0.139 A 
ATOM     31  C25 UNL     1      40.476  71.113 -12.881  0.00  0.00    +0.037 A 
ATOM     32  C26 UNL     1      39.484  70.825 -11.941  0.00  0.00    +0.006 A 
ATOM     33  C27 UNL     1      39.254  69.499 -11.538  0.00  0.00    +0.040 A 
ATOM     34  C29 UNL     1      40.022  68.469 -12.102  0.00  0.00    +0.006 A 
ATOM     35  C30 UNL     1      40.998  68.758 -13.061  0.00  0.00    +0.037 A 
BRANCH  33  36
ATOM     36  C28 UNL     1      38.216  69.194 -10.533  0.00  0.00    +0.208 A 
ATOM     37  N3  UNL     1      38.143  69.762  -9.313  0.00  0.00    -0.106 NA
ATOM     38  N4  UNL     1      37.076  69.217  -8.752  0.00  0.00    -0.021 NA
ATOM     39  N5  UNL     1      36.520  68.352  -9.588  0.00  0.00    -0.021 NA
ATOM     40  N6  UNL     1      37.208  68.317 -10.717  0.00  0.00    -0.106 NA
ENDBRANCH  33  36
ENDBRANCH  29  30
ENDBRANCH  28  29
ENDBRANCH  27  28
ENDBRANCH  26  27
ENDBRANCH  25  26
ENDBRANCH  24  25
ENDBRANCH   6  24
TORSDOF 11
ENDMDL
MODEL 3
REMARK VINA RESULT:      -8.2      1.792      2.181
REMARK  Name = ./data/interface_1/pdb/l0c2.pdb
REMARK  11 active torsions:
REMARK  status: ('A' for Active; 'I' for Inactive)
REMARK    1  A    between atoms: O1_2  and  C2_3
REMARK    2  A    between atoms: C5_6  and  C6_7
REMARK    3  A    between atoms: N2_9  and  C7_10
REMARK    4  A    between atoms: C19_23  and  O3_24
REMARK    5  A    between atoms: O3_24  and  C20_25
REMARK    6  A    between atoms: C20_25  and  C21_26
REMARK    7  A    between atoms: C21_26  and  C22_27
REMARK    8  A    between atoms: C22_27  and  C23_28
REMARK    9  A    between atoms: C23_28  and  O4_29
REMARK   10  A    between atoms: O4_29  and  C24_30
REMARK   11  A    between atoms: C27_33  and  C28_34
REMARK                            x       y       z     vdW  Elec       q    Type
REMARK                         _______ _______ _______ _____ _____    ______ ____
ROOT
ATOM      1  C2  UNL     1      41.694  76.395  -7.654  0.00  0.00    +0.172 A 
ATOM      2  C3  UNL     1      40.484  76.458  -8.364  0.00  0.00    +0.040 A 
ATOM      3  C4  UNL     1      40.302  75.709  -9.528  0.00  0.00    +0.005 A 
ATOM      4  C5  UNL     1      41.318  74.868 -10.010  0.00  0.00    +0.019 A 
ATOM      5  C18 UNL     1      42.534  74.818  -9.299  0.00  0.00    +0.041 A 
ATOM      6  C19 UNL     1      42.728  75.577  -8.128  0.00  0.00    +0.172 A 
ENDROOT
BRANCH   4   7
ATOM      7  C6  UNL     1      41.155  74.033 -11.239  0.00  0.00    +0.084 C 
ATOM      8  N1  UNL     1      40.560  72.879 -11.173  0.00  0.00    -0.180 NA
ATOM      9  N2  UNL     1      40.566  72.228 -12.406  0.00  0.00    -0.183 N 
ATOM     10  C14 UNL     1      41.296  73.037 -13.305  0.00  0.00    +0.249 C 
ATOM     11  O2  UNL     1      41.573  72.700 -14.488  0.00  0.00    -0.273 OA
ATOM     12  C15 UNL     1      41.695  74.319 -12.645  0.00  0.00    +0.107 C 
ATOM     13  C16 UNL     1      40.976  75.484 -13.345  0.00  0.00    +0.015 C 
ATOM     14  C17 UNL     1      43.224  74.465 -12.667  0.00  0.00    +0.015 C 
BRANCH   9  15
ATOM     15  C7  UNL     1      40.277  70.803 -12.572  0.00  0.00    +0.099 C 
ATOM     16  C8  UNL     1      41.494  69.981 -12.094  0.00  0.00    +0.022 C 
ATOM     17  C9  UNL     1      41.673  68.638 -12.822  0.00  0.00    +0.002 C 
ATOM     18  C10 UNL     1      40.399  67.804 -13.046  0.00  0.00    +0.000 C 
ATOM     19  C11 UNL     1      39.352  67.906 -11.922  0.00  0.00    +0.000 C 
ATOM     20  C12 UNL     1      38.394  69.089 -12.130  0.00  0.00    +0.002 C 
ATOM     21  C13 UNL     1      39.003  70.450 -11.772  0.00  0.00    +0.022 C 
ENDBRANCH   9  15
ENDBRANCH   4   7
BRANCH   1  23
ATOM     22  C1  UNL     1      41.202  76.926  -5.258  0.00  0.00    +0.253 C 
ATOM     23  O1  UNL     1      41.910  77.130  -6.477  0.00  0.00    -0.468 OA
ENDBRANCH   1  23
BRANCH   6  24
ATOM     24  O3  UNL     1      43.934  75.542  -7.410  0.00  0.00    -0.472 OA
BRANCH  24  25
ATOM     25  C20 UNL     1      45.188  75.147  -7.961  0.00  0.00    +0.206 C 
BRANCH  25  26
ATOM     26  C21 UNL     1      46.120  74.677  -6.844  0.00  0.00    +0.051 C 
BRANCH  26  27
ATOM     27  C22 UNL     1      45.664  75.230  -5.487  0.00  0.00    +0.051 C 
BRANCH  27  28
ATOM     28  C23 UNL     1      46.415  74.576  -4.320  0.00  0.00    +0.206 C 
BRANCH  28  29
ATOM     29  O4  UNL     1      45.605  73.615  -3.640  0.00  0.00    -0.475 OA
BRANCH  29  30
ATOM     30  C24 UNL     1      45.573  72.236  -3.905  0.00  0.00    +0.139 A 
ATOM     31  C25 UNL     1      44.815  71.423  -3.055  0.00  0.00    +0.037 A 
ATOM     32  C26 UNL     1      44.736  70.045  -3.271  0.00  0.00    +0.006 A 
ATOM     33  C27 UNL     1      45.434  69.453  -4.336  0.00  0.00    +0.040 A 
ATOM     34  C29 UNL     1      46.199  70.265  -5.188  0.00  0.00    +0.006 A 
ATOM     35  C30 UNL     1      46.257  71.647  -4.984  0.00  0.00    +0.037 A 
BRANCH  33  36
ATOM     36  C28 UNL     1      45.364  67.994  -4.557  0.00  0.00    +0.208 A 
ATOM     37  N3  UNL     1      45.060  67.092  -3.604  0.00  0.00    -0.106 NA
ATOM     38  N4  UNL     1      45.102  65.923  -4.223  0.00  0.00    -0.021 NA
ATOM     39  N5  UNL     1      45.419  66.100  -5.498  0.00  0.00    -0.021 NA
ATOM     40  N6  UNL     1      45.587  67.389  -5.741  0.00  0.00    -0.106 NA
ENDBRANCH  33  36
ENDBRANCH  29  30
ENDBRANCH  28  29
ENDBRANCH  27  28
ENDBRANCH  26  27
ENDBRANCH  25  26
ENDBRANCH  24  25
ENDBRANCH   6  24
TORSDOF 11
ENDMDL
MODEL 4
REMARK VINA RESULT:      -8.0      4.006      5.931
REMARK  Name = ./data/interface_1/pdb/l0c2.pdb
REMARK  11 active torsions:
REMARK  status: ('A' for Active; 'I' for Inactive)
REMARK    1  A    between atoms: O1_2  and  C2_3
REMARK    2  A    between atoms: C5_6  and  C6_7
REMARK    3  A    between atoms: N2_9  and  C7_10
REMARK    4  A    between atoms: C19_23  and  O3_24
REMARK    5  A    between atoms: O3_24  and  C20_25
REMARK    6  A    between atoms: C20_25  and  C21_26
REMARK    7  A    between atoms: C21_26  and  C22_27
REMARK    8  A    between atoms: C22_27  and  C23_28
REMARK    9  A    between atoms: C23_28  and  O4_29
REMARK   10  A    between atoms: O4_29  and  C24_30
REMARK   11  A    between atoms: C27_33  and  C28_34
REMARK                            x       y       z     vdW  Elec       q    Type
REMARK                         _______ _______ _______ _____ _____    ______ ____
ROOT
ATOM      1  C2  UNL     1      39.841  76.769  -7.026  0.00  0.00    +0.172 A 
ATOM      2  C3  UNL     1      39.350  76.981  -8.325  0.00  0.00    +0.040 A 
ATOM      3  C4  UNL     1      40.102  76.604  -9.440  0.00  0.00    +0.005 A 
ATOM      4  C5  UNL     1      41.358  75.996  -9.289  0.00  0.00    +0.019 A 
ATOM      5  C18 UNL     1      41.849  75.797  -7.983  0.00  0.00    +0.041 A 
ATOM      6  C19 UNL     1      41.101  76.181  -6.854  0.00  0.00    +0.172 A 
ENDROOT
BRANCH   4   7
ATOM      7  C6  UNL     1      42.184  75.558 -10.456  0.00  0.00    +0.084 C 
ATOM      8  N1  UNL     1      41.644  75.441 -11.633  0.00  0.00    -0.180 NA
ATOM      9  N2  UNL     1      42.558  74.961 -12.570  0.00  0.00    -0.183 N 
ATOM     10  C14 UNL     1      43.763  74.693 -11.884  0.00  0.00    +0.249 C 
ATOM     11  O2  UNL     1      44.773  74.160 -12.417  0.00  0.00    -0.273 OA
ATOM     12  C15 UNL     1      43.651  75.117 -10.453  0.00  0.00    +0.107 C 
ATOM     13  C16 UNL     1      44.632  76.274 -10.198  0.00  0.00    +0.015 C 
ATOM     14  C17 UNL     1      43.900  73.913  -9.531  0.00  0.00    +0.015 C 
BRANCH   9  15
ATOM     15  C7  UNL     1      42.173  74.419 -13.874  0.00  0.00    +0.099 C 
ATOM     16  C8  UNL     1      41.824  72.922 -13.717  0.00  0.00    +0.022 C 
ATOM     17  C9  UNL     1      42.106  72.074 -14.968  0.00  0.00    +0.002 C 
ATOM     18  C10 UNL     1      41.682  72.680 -16.318  0.00  0.00    +0.000 C 
ATOM     19  C11 UNL     1      40.401  73.532 -16.272  0.00  0.00    +0.000 C 
ATOM     20  C12 UNL     1      40.694  74.998 -15.912  0.00  0.00    +0.002 C 
ATOM     21  C13 UNL     1      40.975  75.226 -14.423  0.00  0.00    +0.022 C 
ENDBRANCH   9  15
ENDBRANCH   4   7
BRANCH   1  23
ATOM     22  C1  UNL     1      37.984  76.413  -5.386  0.00  0.00    +0.253 C 
ATOM     23  O1  UNL     1      39.110  77.130  -5.882  0.00  0.00    -0.468 OA
ENDBRANCH   1  23
BRANCH   6  24
ATOM     24  O3  UNL     1      41.577  75.993  -5.546  0.00  0.00    -0.472 OA
BRANCH  24  25
ATOM     25  C20 UNL     1      41.689  74.724  -4.905  0.00  0.00    +0.206 C 
BRANCH  25  26
ATOM     26  C21 UNL     1      40.351  73.989  -4.975  0.00  0.00    +0.051 C 
BRANCH  26  27
ATOM     27  C22 UNL     1      40.345  72.977  -6.129  0.00  0.00    +0.051 C 
BRANCH  27  28
ATOM     28  C23 UNL     1      39.086  73.103  -6.996  0.00  0.00    +0.206 C 
BRANCH  28  29
ATOM     29  O4  UNL     1      39.400  73.094  -8.390  0.00  0.00    -0.475 OA
BRANCH  29  30
ATOM     30  C24 UNL     1      39.615  71.950  -9.175  0.00  0.00    +0.139 A 
ATOM     31  C25 UNL     1      40.233  72.116 -10.420  0.00  0.00    +0.037 A 
ATOM     32  C26 UNL     1      40.483  71.015 -11.243  0.00  0.00    +0.006 A 
ATOM     33  C27 UNL     1      40.098  69.726 -10.839  0.00  0.00    +0.040 A 
ATOM     34  C29 UNL     1      39.474  69.557  -9.593  0.00  0.00    +0.006 A 
ATOM     35  C30 UNL     1      39.246  70.657  -8.761  0.00  0.00    +0.037 A 
BRANCH  33  36
ATOM     36  C28 UNL     1      40.348  68.563 -11.714  0.00  0.00    +0.208 A 
ATOM     37  N3  UNL     1      41.355  67.684 -11.548  0.00  0.00    -0.106 NA
ATOM     38  N4  UNL     1      41.206  66.812 -12.531  0.00  0.00    -0.021 NA
ATOM     39  N5  UNL     1      40.156  67.141 -13.269  0.00  0.00    -0.021 NA
ATOM     40  N6  UNL     1      39.591  68.233 -12.781  0.00  0.00    -0.106 NA
ENDBRANCH  33  36
ENDBRANCH  29  30
ENDBRANCH  28  29
ENDBRANCH  27  28
ENDBRANCH  26  27
ENDBRANCH  25  26
ENDBRANCH  24  25
ENDBRANCH   6  24
TORSDOF 11
ENDMDL
MODEL 5
REMARK VINA RESULT:      -7.9      4.415      6.064
REMARK  Name = ./data/interface_1/pdb/l0c2.pdb
REMARK  11 active torsions:
REMARK  status: ('A' for Active; 'I' for Inactive)
REMARK    1  A    between atoms: O1_2  and  C2_3
REMARK    2  A    between atoms: C5_6  and  C6_7
REMARK    3  A    between atoms: N2_9  and  C7_10
REMARK    4  A    between atoms: C19_23  and  O3_24
REMARK    5  A    between atoms: O3_24  and  C20_25
REMARK    6  A    between atoms: C20_25  and  C21_26
REMARK    7  A    between atoms: C21_26  and  C22_27
REMARK    8  A    between atoms: C22_27  and  C23_28
REMARK    9  A    between atoms: C23_28  and  O4_29
REMARK   10  A    between atoms: O4_29  and  C24_30
REMARK   11  A    between atoms: C27_33  and  C28_34
REMARK                            x       y       z     vdW  Elec       q    Type
REMARK                         _______ _______ _______ _____ _____    ______ ____
ROOT
ATOM      1  C2  UNL     1      40.533  75.158  -9.145  0.00  0.00    +0.172 A 
ATOM      2  C3  UNL     1      40.771  75.515 -10.482  0.00  0.00    +0.040 A 
ATOM      3  C4  UNL     1      40.966  74.534 -11.457  0.00  0.00    +0.005 A 
ATOM      4  C5  UNL     1      40.917  73.171 -11.126  0.00  0.00    +0.019 A 
ATOM      5  C18 UNL     1      40.690  72.820  -9.780  0.00  0.00    +0.041 A 
ATOM      6  C19 UNL     1      40.501  73.803  -8.790  0.00  0.00    +0.172 A 
ENDROOT
BRANCH   4   7
ATOM      7  C6  UNL     1      41.098  72.090 -12.143  0.00  0.00    +0.084 C 
ATOM      8  N1  UNL     1      41.748  72.328 -13.243  0.00  0.00    -0.180 NA
ATOM      9  N2  UNL     1      41.752  71.218 -14.087  0.00  0.00    -0.183 N 
ATOM     10  C14 UNL     1      40.968  70.218 -13.470  0.00  0.00    +0.249 C 
ATOM     11  O2  UNL     1      40.686  69.114 -14.008  0.00  0.00    -0.273 OA
ATOM     12  C15 UNL     1      40.520  70.671 -12.115  0.00  0.00    +0.107 C 
ATOM     13  C16 UNL     1      41.170  69.772 -11.050  0.00  0.00    +0.015 C 
ATOM     14  C17 UNL     1      38.985  70.664 -12.043  0.00  0.00    +0.015 C 
BRANCH   9  15
ATOM     15  C7  UNL     1      42.105  71.279 -15.506  0.00  0.00    +0.099 C 
ATOM     16  C8  UNL     1      42.479  72.732 -15.872  0.00  0.00    +0.022 C 
ATOM     17  C9  UNL     1      42.172  73.114 -17.329  0.00  0.00    +0.002 C 
ATOM     18  C10 UNL     1      42.548  72.078 -18.404  0.00  0.00    +0.000 C 
ATOM     19  C11 UNL     1      43.818  71.264 -18.102  0.00  0.00    +0.000 C 
ATOM     20  C12 UNL     1      43.516  70.012 -17.262  0.00  0.00    +0.002 C 
ATOM     21  C13 UNL     1      43.275  70.307 -15.776  0.00  0.00    +0.022 C 
ENDBRANCH   9  15
ENDBRANCH   4   7
BRANCH   1  23
ATOM     22  C1  UNL     1      39.257  77.056  -8.128  0.00  0.00    +0.253 C 
ATOM     23  O1  UNL     1      40.329  76.117  -8.140  0.00  0.00    -0.468 OA
ENDBRANCH   1  23
BRANCH   6  24
ATOM     24  O3  UNL     1      40.277  73.471  -7.444  0.00  0.00    -0.472 OA
BRANCH  24  25
ATOM     25  C20 UNL     1      39.033  73.644  -6.768  0.00  0.00    +0.206 C 
BRANCH  25  26
ATOM     26  C21 UNL     1      39.263  74.348  -5.432  0.00  0.00    +0.051 C 
BRANCH  26  27
ATOM     27  C22 UNL     1      40.705  74.140  -4.948  0.00  0.00    +0.051 C 
BRANCH  27  28
ATOM     28  C23 UNL     1      41.524  75.436  -5.014  0.00  0.00    +0.206 C 
BRANCH  28  29
ATOM     29  O4  UNL     1      42.892  75.182  -5.341  0.00  0.00    -0.475 OA
BRANCH  29  30
ATOM     30  C24 UNL     1      43.423  75.096  -6.638  0.00  0.00    +0.139 A 
ATOM     31  C25 UNL     1      43.635  73.822  -7.177  0.00  0.00    +0.037 A 
ATOM     32  C26 UNL     1      44.152  73.671  -8.466  0.00  0.00    +0.006 A 
ATOM     33  C27 UNL     1      44.486  74.800  -9.233  0.00  0.00    +0.040 A 
ATOM     34  C29 UNL     1      44.280  76.079  -8.693  0.00  0.00    +0.006 A 
ATOM     35  C30 UNL     1      43.740  76.228  -7.412  0.00  0.00    +0.037 A 
BRANCH  33  36
ATOM     36  C28 UNL     1      45.048  74.642 -10.590  0.00  0.00    +0.208 A 
ATOM     37  N3  UNL     1      44.327  74.320 -11.681  0.00  0.00    -0.106 NA
ATOM     38  N4  UNL     1      45.208  74.291 -12.668  0.00  0.00    -0.021 NA
ATOM     39  N5  UNL     1      46.414  74.581 -12.204  0.00  0.00    -0.021 NA
ATOM     40  N6  UNL     1      46.348  74.811 -10.902  0.00  0.00    -0.106 NA
ENDBRANCH  33  36
ENDBRANCH  29  30
ENDBRANCH  28  29
ENDBRANCH  27  28
ENDBRANCH  26  27
ENDBRANCH  25  26
ENDBRANCH  24  25
ENDBRANCH   6  24
TORSDOF 11
ENDMDL
MODEL 6
REMARK VINA RESULT:      -7.9      5.205      8.914
REMARK  Name = ./data/interface_1/pdb/l0c2.pdb
REMARK  11 active torsions:
REMARK  status: ('A' for Active; 'I' for Inactive)
REMARK    1  A    between atoms: O1_2  and  C2_3
REMARK    2  A    between atoms: C5_6  and  C6_7
REMARK    3  A    between atoms: N2_9  and  C7_10
REMARK    4  A    between atoms: C19_23  and  O3_24
REMARK    5  A    between atoms: O3_24  and  C20_25
REMARK    6  A    between atoms: C20_25  and  C21_26
REMARK    7  A    between atoms: C21_26  and  C22_27
REMARK    8  A    between atoms: C22_27  and  C23_28
REMARK    9  A    between atoms: C23_28  and  O4_29
REMARK   10  A    between atoms: O4_29  and  C24_30
REMARK   11  A    between atoms: C27_33  and  C28_34
REMARK                            x       y       z     vdW  Elec       q    Type
REMARK                         _______ _______ _______ _____ _____    ______ ____
ROOT
ATOM      1  C2  UNL     1      42.803  71.884 -16.353  0.00  0.00    +0.172 A 
ATOM      2  C3  UNL     1      43.039  70.520 -16.114  0.00  0.00    +0.040 A 
ATOM      3  C4  UNL     1      42.480  69.885 -15.003  0.00  0.00    +0.005 A 
ATOM      4  C5  UNL     1      41.661  70.591 -14.107  0.00  0.00    +0.019 A 
ATOM      5  C18 UNL     1      41.438  71.961 -14.346  0.00  0.00    +0.041 A 
ATOM      6  C19 UNL     1      42.005  72.611 -15.460  0.00  0.00    +0.172 A 
ENDROOT
BRANCH   4   7
ATOM      7  C6  UNL     1      41.025  69.942 -12.919  0.00  0.00    +0.084 C 
ATOM      8  N1  UNL     1      40.378  70.660 -12.050  0.00  0.00    -0.180 NA
ATOM      9  N2  UNL     1      39.917  69.884 -10.987  0.00  0.00    -0.183 N 
ATOM     10  C14 UNL     1      40.386  68.568 -11.192  0.00  0.00    +0.249 C 
ATOM     11  O2  UNL     1      40.228  67.628 -10.367  0.00  0.00    -0.273 OA
ATOM     12  C15 UNL     1      41.100  68.469 -12.503  0.00  0.00    +0.107 C 
ATOM     13  C16 UNL     1      40.307  67.536 -13.433  0.00  0.00    +0.015 C 
ATOM     14  C17 UNL     1      42.545  67.996 -12.278  0.00  0.00    +0.015 C 
BRANCH   9  15
ATOM     15  C7  UNL     1      39.455  70.444  -9.716  0.00  0.00    +0.099 C 
ATOM     16  C8  UNL     1      39.692  71.970  -9.718  0.00  0.00    +0.022 C 
ATOM     17  C9  UNL     1      39.955  72.569  -8.327  0.00  0.00    +0.002 C 
ATOM     18  C10 UNL     1      39.048  72.076  -7.185  0.00  0.00    +0.000 C 
ATOM     19  C11 UNL     1      37.599  71.764  -7.598  0.00  0.00    +0.000 C 
ATOM     20  C12 UNL     1      37.439  70.321  -8.103  0.00  0.00    +0.002 C 
ATOM     21  C13 UNL     1      37.959  70.103  -9.529  0.00  0.00    +0.022 C 
ENDBRANCH   9  15
ENDBRANCH   4   7
BRANCH   1  23
ATOM     22  C1  UNL     1      44.737  72.627 -17.758  0.00  0.00    +0.253 C 
ATOM     23  O1  UNL     1      43.345  72.554 -17.462  0.00  0.00    -0.468 OA
ENDBRANCH   1  23
BRANCH   6  24
ATOM     24  O3  UNL     1      41.796  73.977 -15.711  0.00  0.00    -0.472 OA
BRANCH  24  25
ATOM     25  C20 UNL     1      40.644  74.705 -15.292  0.00  0.00    +0.206 C 
BRANCH  25  26
ATOM     26  C21 UNL     1      41.066  75.873 -14.402  0.00  0.00    +0.051 C 
BRANCH  26  27
ATOM     27  C22 UNL     1      41.469  75.376 -13.006  0.00  0.00    +0.051 C 
BRANCH  27  28
ATOM     28  C23 UNL     1      42.762  76.038 -12.513  0.00  0.00    +0.206 C 
BRANCH  28  29
ATOM     29  O4  UNL     1      42.515  76.955 -11.446  0.00  0.00    -0.475 OA
BRANCH  29  30
ATOM     30  C24 UNL     1      41.801  76.672 -10.270  0.00  0.00    +0.139 A 
ATOM     31  C25 UNL     1      40.471  77.100 -10.191  0.00  0.00    +0.037 A 
ATOM     32  C26 UNL     1      39.705  76.841  -9.052  0.00  0.00    +0.006 A 
ATOM     33  C27 UNL     1      40.269  76.162  -7.959  0.00  0.00    +0.040 A 
ATOM     34  C29 UNL     1      41.604  75.736  -8.033  0.00  0.00    +0.006 A 
ATOM     35  C30 UNL     1      42.360  75.975  -9.183  0.00  0.00    +0.037 A 
BRANCH  33  36
ATOM     36  C28 UNL     1      39.465  75.900  -6.747  0.00  0.00    +0.208 A 
ATOM     37  N3  UNL     1      38.135  75.690  -6.744  0.00  0.00    -0.106 NA
ATOM     38  N4  UNL     1      37.829  75.492  -5.472  0.00  0.00    -0.021 NA
ATOM     39  N5  UNL     1      38.922  75.579  -4.728  0.00  0.00    -0.021 NA
ATOM     40  N6  UNL     1      39.968  75.831  -5.498  0.00  0.00    -0.106 NA
ENDBRANCH  33  36
ENDBRANCH  29  30
ENDBRANCH  28  29
ENDBRANCH  27  28
ENDBRANCH  26  27
ENDBRANCH  25  26
ENDBRANCH  24  25
ENDBRANCH   6  24
TORSDOF 11
ENDMDL
MODEL 7
REMARK VINA RESULT:      -7.9      4.555      9.110
REMARK  Name = ./data/interface_1/pdb/l0c2.pdb
REMARK  11 active torsions:
REMARK  status: ('A' for Active; 'I' for Inactive)
REMARK    1  A    between atoms: O1_2  and  C2_3
REMARK    2  A    between atoms: C5_6  and  C6_7
REMARK    3  A    between atoms: N2_9  and  C7_10
REMARK    4  A    between atoms: C19_23  and  O3_24
REMARK    5  A    between atoms: O3_24  and  C20_25
REMARK    6  A    between atoms: C20_25  and  C21_26
REMARK    7  A    between atoms: C21_26  and  C22_27
REMARK    8  A    between atoms: C22_27  and  C23_28
REMARK    9  A    between atoms: C23_28  and  O4_29
REMARK   10  A    between atoms: O4_29  and  C24_30
REMARK   11  A    between atoms: C27_33  and  C28_34
REMARK                            x       y       z     vdW  Elec       q    Type
REMARK                         _______ _______ _______ _____ _____    ______ ____
ROOT
ATOM      1  C2  UNL     1      41.024  75.278 -14.327  0.00  0.00    +0.172 A 
ATOM      2  C3  UNL     1      40.592  76.330 -13.502  0.00  0.00    +0.040 A 
ATOM      3  C4  UNL     1      40.851  76.311 -12.131  0.00  0.00    +0.005 A 
ATOM      4  C5  UNL     1      41.559  75.249 -11.546  0.00  0.00    +0.019 A 
ATOM      5  C18 UNL     1      41.979  74.192 -12.377  0.00  0.00    +0.041 A 
ATOM      6  C19 UNL     1      41.714  74.199 -13.760  0.00  0.00    +0.172 A 
ENDROOT
BRANCH   4   7
ATOM      7  C6  UNL     1      41.877  75.202 -10.086  0.00  0.00    +0.084 C 
ATOM      8  N1  UNL     1      40.923  75.069  -9.212  0.00  0.00    -0.180 NA
ATOM      9  N2  UNL     1      41.414  75.113  -7.907  0.00  0.00    -0.183 N 
ATOM     10  C14 UNL     1      42.801  75.365  -7.988  0.00  0.00    +0.249 C 
ATOM     11  O2  UNL     1      43.541  75.558  -6.986  0.00  0.00    -0.273 OA
ATOM     12  C15 UNL     1      43.244  75.385  -9.418  0.00  0.00    +0.107 C 
ATOM     13  C16 UNL     1      44.199  74.204  -9.660  0.00  0.00    +0.015 C 
ATOM     14  C17 UNL     1      43.882  76.743  -9.749  0.00  0.00    +0.015 C 
BRANCH   9  15
ATOM     15  C7  UNL     1      40.570  75.321  -6.730  0.00  0.00    +0.099 C 
ATOM     16  C8  UNL     1      39.403  76.261  -7.104  0.00  0.00    +0.022 C 
ATOM     17  C9  UNL     1      38.892  77.125  -5.939  0.00  0.00    +0.002 C 
ATOM     18  C10 UNL     1      38.719  76.417  -4.584  0.00  0.00    +0.000 C 
ATOM     19  C11 UNL     1      38.267  74.949  -4.673  0.00  0.00    +0.000 C 
ATOM     20  C12 UNL     1      39.457  73.985  -4.818  0.00  0.00    +0.002 C 
ATOM     21  C13 UNL     1      40.058  73.952  -6.228  0.00  0.00    +0.022 C 
ENDBRANCH   9  15
ENDBRANCH   4   7
BRANCH   1  23
ATOM     22  C1  UNL     1      40.022  74.272 -16.388  0.00  0.00    +0.253 C 
ATOM     23  O1  UNL     1      40.785  75.266 -15.711  0.00  0.00    -0.468 OA
ENDBRANCH   1  23
BRANCH   6  24
ATOM     24  O3  UNL     1      42.123  73.152 -14.602  0.00  0.00    -0.472 OA
BRANCH  24  25
ATOM     25  C20 UNL     1      43.451  72.987 -15.095  0.00  0.00    +0.206 C 
BRANCH  25  26
ATOM     26  C21 UNL     1      43.419  72.253 -16.434  0.00  0.00    +0.051 C 
BRANCH  26  27
ATOM     27  C22 UNL     1      43.744  70.764 -16.247  0.00  0.00    +0.051 C 
BRANCH  27  28
ATOM     28  C23 UNL     1      42.560  69.990 -15.653  0.00  0.00    +0.206 C 
BRANCH  28  29
ATOM     29  O4  UNL     1      42.698  69.812 -14.242  0.00  0.00    -0.475 OA
BRANCH  29  30
ATOM     30  C24 UNL     1      41.642  69.684 -13.324  0.00  0.00    +0.139 A 
ATOM     31  C25 UNL     1      41.675  68.606 -12.433  0.00  0.00    +0.037 A 
ATOM     32  C26 UNL     1      40.659  68.430 -11.491  0.00  0.00    +0.006 A 
ATOM     33  C27 UNL     1      39.578  69.325 -11.438  0.00  0.00    +0.040 A 
ATOM     34  C29 UNL     1      39.539  70.405 -12.334  0.00  0.00    +0.006 A 
ATOM     35  C30 UNL     1      40.569  70.592 -13.260  0.00  0.00    +0.037 A 
BRANCH  33  36
ATOM     36  C28 UNL     1      38.495  69.132 -10.453  0.00  0.00    +0.208 A 
ATOM     37  N3  UNL     1      38.458  69.709  -9.236  0.00  0.00    -0.106 NA
ATOM     38  N4  UNL     1      37.331  69.278  -8.694  0.00  0.00    -0.021 NA
ATOM     39  N5  UNL     1      36.704  68.472  -9.539  0.00  0.00    -0.021 NA
ATOM     40  N6  UNL     1      37.407  68.362 -10.655  0.00  0.00    -0.106 NA
ENDBRANCH  33  36
ENDBRANCH  29  30
ENDBRANCH  28  29
ENDBRANCH  27  28
ENDBRANCH  26  27
ENDBRANCH  25  26
ENDBRANCH  24  25
ENDBRANCH   6  24
TORSDOF 11
ENDMDL
MODEL 8
REMARK VINA RESULT:      -7.9      4.166      9.032
REMARK  Name = ./data/interface_1/pdb/l0c2.pdb
REMARK  11 active torsions:
REMARK  status: ('A' for Active; 'I' for Inactive)
REMARK    1  A    between atoms: O1_2  and  C2_3
REMARK    2  A    between atoms: C5_6  and  C6_7
REMARK    3  A    between atoms: N2_9  and  C7_10
REMARK    4  A    between atoms: C19_23  and  O3_24
REMARK    5  A    between atoms: O3_24  and  C20_25
REMARK    6  A    between atoms: C20_25  and  C21_26
REMARK    7  A    between atoms: C21_26  and  C22_27
REMARK    8  A    between atoms: C22_27  and  C23_28
REMARK    9  A    between atoms: C23_28  and  O4_29
REMARK   10  A    between atoms: O4_29  and  C24_30
REMARK   11  A    between atoms: C27_33  and  C28_34
REMARK                            x       y       z     vdW  Elec       q    Type
REMARK                         _______ _______ _______ _____ _____    ______ ____
ROOT
ATOM      1  C2  UNL     1      37.575  69.742  -8.674  0.00  0.00    +0.172 A 
ATOM      2  C3  UNL     1      37.014  70.770  -7.898  0.00  0.00    +0.040 A 
ATOM      3  C4  UNL     1      37.781  71.871  -7.513  0.00  0.00    +0.005 A 
ATOM      4  C5  UNL     1      39.126  71.982  -7.901  0.00  0.00    +0.019 A 
ATOM      5  C18 UNL     1      39.685  70.942  -8.670  0.00  0.00    +0.041 A 
ATOM      6  C19 UNL     1      38.920  69.824  -9.055  0.00  0.00    +0.172 A 
ENDROOT
BRANCH   4   7
ATOM      7  C6  UNL     1      39.975  73.155  -7.530  0.00  0.00    +0.084 C 
ATOM      8  N1  UNL     1      41.047  73.430  -8.212  0.00  0.00    -0.180 NA
ATOM      9  N2  UNL     1      41.733  74.517  -7.671  0.00  0.00    -0.183 N 
ATOM     10  C14 UNL     1      41.048  74.906  -6.499  0.00  0.00    +0.249 C 
ATOM     11  O2  UNL     1      41.454  75.804  -5.713  0.00  0.00    -0.273 OA
ATOM     12  C15 UNL     1      39.802  74.095  -6.331  0.00  0.00    +0.107 C 
ATOM     13  C16 UNL     1      38.582  75.023  -6.460  0.00  0.00    +0.015 C 
ATOM     14  C17 UNL     1      39.842  73.348  -4.989  0.00  0.00    +0.015 C 
BRANCH   9  15
ATOM     15  C7  UNL     1      43.118  74.850  -8.008  0.00  0.00    +0.099 C 
ATOM     16  C8  UNL     1      44.024  73.644  -7.676  0.00  0.00    +0.022 C 
ATOM     17  C9  UNL     1      45.460  74.025  -7.280  0.00  0.00    +0.002 C 
ATOM     18  C10 UNL     1      46.143  75.108  -8.135  0.00  0.00    +0.000 C 
ATOM     19  C11 UNL     1      45.763  75.091  -9.626  0.00  0.00    +0.000 C 
ATOM     20  C12 UNL     1      44.501  75.921  -9.911  0.00  0.00    +0.002 C 
ATOM     21  C13 UNL     1      43.197  75.223  -9.505  0.00  0.00    +0.022 C 
ENDBRANCH   9  15
ENDBRANCH   4   7
BRANCH   1  23
ATOM     22  C1  UNL     1      36.562  68.287 -10.441  0.00  0.00    +0.253 C 
ATOM     23  O1  UNL     1      36.831  68.623  -9.083  0.00  0.00    -0.468 OA
ENDBRANCH   1  23
BRANCH   6  24
ATOM     24  O3  UNL     1      39.463  68.777  -9.818  0.00  0.00    -0.472 OA
BRANCH  24  25
ATOM     25  C20 UNL     1      40.825  68.707 -10.235  0.00  0.00    +0.206 C 
BRANCH  25  26
ATOM     26  C21 UNL     1      41.090  67.363 -10.911  0.00  0.00    +0.051 C 
BRANCH  26  27
ATOM     27  C22 UNL     1      41.501  67.563 -12.377  0.00  0.00    +0.051 C 
BRANCH  27  28
ATOM     28  C23 UNL     1      40.555  68.520 -13.112  0.00  0.00    +0.206 C 
BRANCH  28  29
ATOM     29  O4  UNL     1      41.272  69.517 -13.844  0.00  0.00    -0.475 OA
BRANCH  29  30
ATOM     30  C24 UNL     1      41.276  70.893 -13.566  0.00  0.00    +0.139 A 
ATOM     31  C25 UNL     1      41.024  71.298 -12.251  0.00  0.00    +0.037 A 
ATOM     32  C26 UNL     1      41.024  72.653 -11.910  0.00  0.00    +0.006 A 
ATOM     33  C27 UNL     1      41.258  73.631 -12.890  0.00  0.00    +0.040 A 
ATOM     34  C29 UNL     1      41.507  73.228 -14.212  0.00  0.00    +0.006 A 
ATOM     35  C30 UNL     1      41.530  71.871 -14.546  0.00  0.00    +0.037 A 
BRANCH  33  36
ATOM     36  C28 UNL     1      41.244  75.064 -12.535  0.00  0.00    +0.208 A 
ATOM     37  N3  UNL     1      42.030  75.999 -13.101  0.00  0.00    -0.106 NA
ATOM     38  N4  UNL     1      41.692  77.130 -12.504  0.00  0.00    -0.021 NA
ATOM     39  N5  UNL     1      40.741  76.899 -11.609  0.00  0.00    -0.021 NA
ATOM     40  N6  UNL     1      40.434  75.612 -11.606  0.00  0.00    -0.106 NA
ENDBRANCH  33  36
ENDBRANCH  29  30
ENDBRANCH  28  29
ENDBRANCH  27  28
ENDBRANCH  26  27
ENDBRANCH  25  26
ENDBRANCH  24  25
ENDBRANCH   6  24
TORSDOF 11
ENDMDL
MODEL 9
REMARK VINA RESULT:      -7.9      4.257      9.225
REMARK  Name = ./data/interface_1/pdb/l0c2.pdb
REMARK  11 active torsions:
REMARK  status: ('A' for Active; 'I' for Inactive)
REMARK    1  A    between atoms: O1_2  and  C2_3
REMARK    2  A    between atoms: C5_6  and  C6_7
REMARK    3  A    between atoms: N2_9  and  C7_10
REMARK    4  A    between atoms: C19_23  and  O3_24
REMARK    5  A    between atoms: O3_24  and  C20_25
REMARK    6  A    between atoms: C20_25  and  C21_26
REMARK    7  A    between atoms: C21_26  and  C22_27
REMARK    8  A    between atoms: C22_27  and  C23_28
REMARK    9  A    between atoms: C23_28  and  O4_29
REMARK   10  A    between atoms: O4_29  and  C24_30
REMARK   11  A    between atoms: C27_33  and  C28_34
REMARK                            x       y       z     vdW  Elec       q    Type
REMARK                         _______ _______ _______ _____ _____    ______ ____
ROOT
ATOM      1  C2  UNL     1      40.831  74.563 -15.189  0.00  0.00    +0.172 A 
ATOM      2  C3  UNL     1      40.581  75.483 -14.158  0.00  0.00    +0.040 A 
ATOM      3  C4  UNL     1      41.405  75.533 -13.032  0.00  0.00    +0.005 A 
ATOM      4  C5  UNL     1      42.509  74.674 -12.910  0.00  0.00    +0.019 A 
ATOM      5  C18 UNL     1      42.748  73.746 -13.943  0.00  0.00    +0.041 A 
ATOM      6  C19 UNL     1      41.916  73.684 -15.077  0.00  0.00    +0.172 A 
ENDROOT
BRANCH   4   7
ATOM      7  C6  UNL     1      43.429  74.710 -11.732  0.00  0.00    +0.084 C 
ATOM      8  N1  UNL     1      43.191  73.968 -10.691  0.00  0.00    -0.180 NA
ATOM      9  N2  UNL     1      44.122  74.193  -9.678  0.00  0.00    -0.183 N 
ATOM     10  C14 UNL     1      44.981  75.225 -10.117  0.00  0.00    +0.249 C 
ATOM     11  O2  UNL     1      45.884  75.739  -9.404  0.00  0.00    -0.273 OA
ATOM     12  C15 UNL     1      44.648  75.616 -11.523  0.00  0.00    +0.107 C 
ATOM     13  C16 UNL     1      45.834  75.256 -12.434  0.00  0.00    +0.015 C 
ATOM     14  C17 UNL     1      44.287  77.108 -11.579  0.00  0.00    +0.015 C 
BRANCH   9  15
ATOM     15  C7  UNL     1      43.931  73.765  -8.292  0.00  0.00    +0.099 C 
ATOM     16  C8  UNL     1      45.264  73.918  -7.527  0.00  0.00    +0.022 C 
ATOM     17  C9  UNL     1      45.453  72.909  -6.381  0.00  0.00    +0.002 C 
ATOM     18  C10 UNL     1      44.232  72.662  -5.476  0.00  0.00    +0.000 C 
ATOM     19  C11 UNL     1      43.341  73.894  -5.241  0.00  0.00    +0.000 C 
ATOM     20  C12 UNL     1      42.270  74.050  -6.333  0.00  0.00    +0.002 C 
ATOM     21  C13 UNL     1      42.809  74.614  -7.653  0.00  0.00    +0.022 C 
ENDBRANCH   9  15
ENDBRANCH   4   7
BRANCH   1  23
ATOM     22  C1  UNL     1      38.960  73.561 -16.515  0.00  0.00    +0.253 C 
ATOM     23  O1  UNL     1      40.026  74.489 -16.337  0.00  0.00    -0.468 OA
ENDBRANCH   1  23
BRANCH   6  24
ATOM     24  O3  UNL     1      42.138  72.763 -16.115  0.00  0.00    -0.472 OA
BRANCH  24  25
ATOM     25  C20 UNL     1      43.277  72.775 -16.972  0.00  0.00    +0.206 C 
BRANCH  25  26
ATOM     26  C21 UNL     1      44.340  71.817 -16.436  0.00  0.00    +0.051 C 
BRANCH  26  27
ATOM     27  C22 UNL     1      43.914  70.358 -16.649  0.00  0.00    +0.051 C 
BRANCH  27  28
ATOM     28  C23 UNL     1      42.640  70.012 -15.869  0.00  0.00    +0.206 C 
BRANCH  28  29
ATOM     29  O4  UNL     1      42.913  69.767 -14.488  0.00  0.00    -0.475 OA
BRANCH  29  30
ATOM     30  C24 UNL     1      41.956  69.690 -13.463  0.00  0.00    +0.139 A 
ATOM     31  C25 UNL     1      40.926  70.638 -13.456  0.00  0.00    +0.037 A 
ATOM     32  C26 UNL     1      39.939  70.609 -12.468  0.00  0.00    +0.006 A 
ATOM     33  C27 UNL     1      39.979  69.637 -11.455  0.00  0.00    +0.040 A 
ATOM     34  C29 UNL     1      41.013  68.688 -11.457  0.00  0.00    +0.006 A 
ATOM     35  C30 UNL     1      41.986  68.705 -12.460  0.00  0.00    +0.037 A 
BRANCH  33  36
ATOM     36  C28 UNL     1      38.944  69.614 -10.401  0.00  0.00    +0.208 A 
ATOM     37  N3  UNL     1      38.832  70.532  -9.421  0.00  0.00    -0.106 NA
ATOM     38  N4  UNL     1      37.785  70.141  -8.713  0.00  0.00    -0.021 NA
ATOM     39  N5  UNL     1      37.278  69.032  -9.233  0.00  0.00    -0.021 NA
ATOM     40  N6  UNL     1      37.981  68.676 -10.296  0.00  0.00    -0.106 NA
ENDBRANCH  33  36
ENDBRANCH  29  30
ENDBRANCH  28  29
ENDBRANCH  27  28
ENDBRANCH  26  27
ENDBRANCH  25  26
ENDBRANCH  24  25
ENDBRANCH   6  24
TORSDOF 11
ENDMDL
