MODEL 1
REMARK VINA RESULT:     -10.4      0.000      0.000
REMARK  Name = ./data/4wxx_site2_bc02/pdb/l1c2.pdb
REMARK  11 active torsions:
REMARK  status: ('A' for Active; 'I' for Inactive)
REMARK    1  A    between atoms: O1_2  and  C2_3
REMARK    2  A    between atoms: C5_6  and  C6_7
REMARK    3  A    between atoms: N2_9  and  C7_10
REMARK    4  A    between atoms: C22_26  and  O3_27
REMARK    5  A    between atoms: O3_27  and  C23_28
REMARK    6  A    between atoms: C23_28  and  C24_29
REMARK    7  A    between atoms: C24_29  and  C25_30
REMARK    8  A    between atoms: C25_30  and  C26_31
REMARK    9  A    between atoms: C26_31  and  O4_32
REMARK   10  A    between atoms: O4_32  and  C27_33
REMARK   11  A    between atoms: C30_36  and  C31_37
REMARK                            x       y       z     vdW  Elec       q    Type
REMARK                         _______ _______ _______ _____ _____    ______ ____
ROOT
ATOM      1  C2  UNL     1     -45.851  56.670   7.444  0.00  0.00    +0.172 A 
ATOM      2  C3  UNL     1     -45.844  55.672   6.450  0.00  0.00    +0.040 A 
ATOM      3  C4  UNL     1     -46.974  55.452   5.660  0.00  0.00    +0.005 A 
ATOM      4  C5  UNL     1     -48.122  56.236   5.838  0.00  0.00    +0.018 A 
ATOM      5  C21 UNL     1     -48.145  57.205   6.852  0.00  0.00    +0.041 A 
ATOM      6  C22 UNL     1     -47.007  57.441   7.648  0.00  0.00    +0.172 A 
ENDROOT
BRANCH   4   7
ATOM      7  C6  UNL     1     -49.317  56.050   4.994  0.00  0.00    +0.079 C 
ATOM      8  N1  UNL     1     -50.402  56.685   5.332  0.00  0.00    -0.172 NA
ATOM      9  N2  UNL     1     -51.550  56.764   4.508  0.00  0.00    -0.222 N 
ATOM     10  C14 UNL     1     -51.668  55.976   3.458  0.00  0.00    +0.253 C 
ATOM     11  O2  UNL     1     -52.777  56.055   2.613  0.00  0.00    -0.271 OA
ATOM     12  C15 UNL     1     -50.605  54.943   3.171  0.00  0.00    +0.091 C 
ATOM     13  C16 UNL     1     -50.935  53.636   3.919  0.00  0.00    +0.035 C 
ATOM     14  C17 UNL     1     -49.773  52.683   3.991  0.00  0.00    -0.030 C 
ATOM     15  C18 UNL     1     -48.501  53.075   3.833  0.00  0.00    -0.030 C 
ATOM     16  C19 UNL     1     -48.132  54.444   3.330  0.00  0.00    +0.032 C 
ATOM     17  C20 UNL     1     -49.230  55.498   3.582  0.00  0.00    +0.056 C 
BRANCH   9  18
ATOM     18  C7  UNL     1     -52.532  57.816   4.844  0.00  0.00    +0.108 C 
ATOM     19  C8  UNL     1     -51.835  59.099   5.347  0.00  0.00    +0.024 C 
ATOM     20  C9  UNL     1     -52.808  60.256   5.636  0.00  0.00    +0.002 C 
ATOM     21  C10 UNL     1     -53.579  60.050   6.952  0.00  0.00    +0.000 C 
ATOM     22  C11 UNL     1     -54.901  59.270   6.808  0.00  0.00    +0.000 C 
ATOM     23  C12 UNL     1     -54.902  58.115   5.789  0.00  0.00    +0.002 C 
ATOM     24  C13 UNL     1     -53.619  57.263   5.799  0.00  0.00    +0.024 C 
ENDBRANCH   9  18
ENDBRANCH   4   7
BRANCH   1  26
ATOM     25  C1  UNL     1     -43.406  56.485   7.947  0.00  0.00    +0.253 C 
ATOM     26  O1  UNL     1     -44.726  56.935   8.243  0.00  0.00    -0.468 OA
ENDBRANCH   1  26
BRANCH   6  27
ATOM     27  O3  UNL     1     -46.981  58.441   8.635  0.00  0.00    -0.472 OA
BRANCH  27  28
ATOM     28  C23 UNL     1     -47.734  59.652   8.590  0.00  0.00    +0.206 C 
BRANCH  28  29
ATOM     29  C24 UNL     1     -48.889  59.589   9.589  0.00  0.00    +0.051 C 
BRANCH  29  30
ATOM     30  C25 UNL     1     -49.475  60.985   9.845  0.00  0.00    +0.051 C 
BRANCH  30  31
ATOM     31  C26 UNL     1     -50.805  61.175   9.106  0.00  0.00    +0.206 C 
BRANCH  31  32
ATOM     32  O4  UNL     1     -50.578  61.396   7.712  0.00  0.00    -0.475 OA
BRANCH  32  33
ATOM     33  C27 UNL     1     -49.827  62.453   7.168  0.00  0.00    +0.139 A 
ATOM     34  C28 UNL     1     -50.294  63.783   7.124  0.00  0.00    +0.037 A 
ATOM     35  C29 UNL     1     -49.515  64.786   6.540  0.00  0.00    +0.006 A 
ATOM     36  C30 UNL     1     -48.251  64.486   6.006  0.00  0.00    +0.040 A 
ATOM     37  C32 UNL     1     -47.783  63.164   6.065  0.00  0.00    +0.006 A 
ATOM     38  C33 UNL     1     -48.564  62.159   6.640  0.00  0.00    +0.037 A 
BRANCH  36  39
ATOM     39  C31 UNL     1     -47.425  65.549   5.393  0.00  0.00    +0.208 A 
ATOM     40  N3  UNL     1     -46.273  66.030   5.907  0.00  0.00    -0.106 NA
ATOM     41  N4  UNL     1     -45.868  66.965   5.065  0.00  0.00    -0.021 NA
ATOM     42  N5  UNL     1     -46.725  67.063   4.065  0.00  0.00    -0.021 NA
ATOM     43  N6  UNL     1     -47.707  66.195   4.240  0.00  0.00    -0.106 NA
ENDBRANCH  36  39
ENDBRANCH  32  33
ENDBRANCH  31  32
ENDBRANCH  30  31
ENDBRANCH  29  30
ENDBRANCH  28  29
ENDBRANCH  27  28
ENDBRANCH   6  27
TORSDOF 11
ENDMDL
MODEL 2
REMARK VINA RESULT:     -10.1      2.569      6.175
REMARK  Name = ./data/4wxx_site2_bc02/pdb/l1c2.pdb
REMARK  11 active torsions:
REMARK  status: ('A' for Active; 'I' for Inactive)
REMARK    1  A    between atoms: O1_2  and  C2_3
REMARK    2  A    between atoms: C5_6  and  C6_7
REMARK    3  A    between atoms: N2_9  and  C7_10
REMARK    4  A    between atoms: C22_26  and  O3_27
REMARK    5  A    between atoms: O3_27  and  C23_28
REMARK    6  A    between atoms: C23_28  and  C24_29
REMARK    7  A    between atoms: C24_29  and  C25_30
REMARK    8  A    between atoms: C25_30  and  C26_31
REMARK    9  A    between atoms: C26_31  and  O4_32
REMARK   10  A    between atoms: O4_32  and  C27_33
REMARK   11  A    between atoms: C30_36  and  C31_37
REMARK                            x       y       z     vdW  Elec       q    Type
REMARK                         _______ _______ _______ _____ _____    ______ ____
ROOT
ATOM      1  C2  UNL     1     -53.099  62.411   7.270  0.00  0.00    +0.172 A 
ATOM      2  C3  UNL     1     -52.018  62.123   8.127  0.00  0.00    +0.040 A 
ATOM      3  C4  UNL     1     -51.169  61.048   7.859  0.00  0.00    +0.005 A 
ATOM      4  C5  UNL     1     -51.373  60.254   6.723  0.00  0.00    +0.018 A 
ATOM      5  C21 UNL     1     -52.471  60.515   5.888  0.00  0.00    +0.041 A 
ATOM      6  C22 UNL     1     -53.328  61.602   6.145  0.00  0.00    +0.172 A 
ENDROOT
BRANCH   4   7
ATOM      7  C6  UNL     1     -50.470  59.135   6.394  0.00  0.00    +0.079 C 
ATOM      8  N1  UNL     1     -50.995  57.951   6.263  0.00  0.00    -0.172 NA
ATOM      9  N2  UNL     1     -50.289  56.837   5.751  0.00  0.00    -0.222 N 
ATOM     10  C14 UNL     1     -48.979  56.884   5.622  0.00  0.00    +0.253 C 
ATOM     11  O2  UNL     1     -48.263  55.808   5.093  0.00  0.00    -0.271 OA
ATOM     12  C15 UNL     1     -48.222  58.108   6.080  0.00  0.00    +0.091 C 
ATOM     13  C16 UNL     1     -47.854  57.964   7.570  0.00  0.00    +0.035 C 
ATOM     14  C17 UNL     1     -47.427  59.259   8.205  0.00  0.00    -0.030 C 
ATOM     15  C18 UNL     1     -47.744  60.457   7.695  0.00  0.00    -0.030 C 
ATOM     16  C19 UNL     1     -48.339  60.621   6.322  0.00  0.00    +0.032 C 
ATOM     17  C20 UNL     1     -49.079  59.360   5.829  0.00  0.00    +0.056 C 
BRANCH   9  18
ATOM     18  C7  UNL     1     -51.105  55.687   5.306  0.00  0.00    +0.108 C 
ATOM     19  C8  UNL     1     -52.597  56.068   5.184  0.00  0.00    +0.024 C 
ATOM     20  C9  UNL     1     -53.481  54.930   4.646  0.00  0.00    +0.002 C 
ATOM     21  C10 UNL     1     -53.750  53.851   5.710  0.00  0.00    +0.000 C 
ATOM     22  C11 UNL     1     -52.705  52.718   5.757  0.00  0.00    +0.000 C 
ATOM     23  C12 UNL     1     -51.242  53.131   5.508  0.00  0.00    +0.002 C 
ATOM     24  C13 UNL     1     -50.833  54.448   6.193  0.00  0.00    +0.024 C 
ENDBRANCH   9  18
ENDBRANCH   4   7
BRANCH   1  26
ATOM     25  C1  UNL     1     -53.607  64.666   8.229  0.00  0.00    +0.253 C 
ATOM     26  O1  UNL     1     -53.961  63.496   7.496  0.00  0.00    -0.468 OA
ENDBRANCH   1  26
BRANCH   6  27
ATOM     27  O3  UNL     1     -54.403  61.921   5.298  0.00  0.00    -0.472 OA
BRANCH  27  28
ATOM     28  C23 UNL     1     -54.671  61.290   4.047  0.00  0.00    +0.206 C 
BRANCH  28  29
ATOM     29  C24 UNL     1     -54.882  62.346   2.962  0.00  0.00    +0.051 C 
BRANCH  29  30
ATOM     30  C25 UNL     1     -53.802  62.246   1.875  0.00  0.00    +0.051 C 
BRANCH  30  31
ATOM     31  C26 UNL     1     -52.810  63.412   1.968  0.00  0.00    +0.206 C 
BRANCH  31  32
ATOM     32  O4  UNL     1     -52.434  63.645   3.327  0.00  0.00    -0.475 OA
BRANCH  32  33
ATOM     33  C27 UNL     1     -51.188  64.142   3.752  0.00  0.00    +0.139 A 
ATOM     34  C28 UNL     1     -50.521  63.661   4.897  0.00  0.00    +0.037 A 
ATOM     35  C29 UNL     1     -49.300  64.217   5.289  0.00  0.00    +0.006 A 
ATOM     36  C30 UNL     1     -48.713  65.248   4.538  0.00  0.00    +0.040 A 
ATOM     37  C32 UNL     1     -49.373  65.715   3.389  0.00  0.00    +0.006 A 
ATOM     38  C33 UNL     1     -50.598  65.166   3.002  0.00  0.00    +0.037 A 
BRANCH  36  39
ATOM     39  C31 UNL     1     -47.419  65.833   4.950  0.00  0.00    +0.208 A 
ATOM     40  N3  UNL     1     -46.697  65.443   6.022  0.00  0.00    -0.106 NA
ATOM     41  N4  UNL     1     -45.628  66.220   6.037  0.00  0.00    -0.021 NA
ATOM     42  N5  UNL     1     -45.674  67.057   5.016  0.00  0.00    -0.021 NA
ATOM     43  N6  UNL     1     -46.778  66.842   4.321  0.00  0.00    -0.106 NA
ENDBRANCH  36  39
ENDBRANCH  32  33
ENDBRANCH  31  32
ENDBRANCH  30  31
ENDBRANCH  29  30
ENDBRANCH  28  29
ENDBRANCH  27  28
ENDBRANCH   6  27
TORSDOF 11
ENDMDL
MODEL 3
REMARK VINA RESULT:      -9.7      3.175      6.706
REMARK  Name = ./data/4wxx_site2_bc02/pdb/l1c2.pdb
REMARK  11 active torsions:
REMARK  status: ('A' for Active; 'I' for Inactive)
REMARK    1  A    between atoms: O1_2  and  C2_3
REMARK    2  A    between atoms: C5_6  and  C6_7
REMARK    3  A    between atoms: N2_9  and  C7_10
REMARK    4  A    between atoms: C22_26  and  O3_27
REMARK    5  A    between atoms: O3_27  and  C23_28
REMARK    6  A    between atoms: C23_28  and  C24_29
REMARK    7  A    between atoms: C24_29  and  C25_30
REMARK    8  A    between atoms: C25_30  and  C26_31
REMARK    9  A    between atoms: C26_31  and  O4_32
REMARK   10  A    between atoms: O4_32  and  C27_33
REMARK   11  A    between atoms: C30_36  and  C31_37
REMARK                            x       y       z     vdW  Elec       q    Type
REMARK                         _______ _______ _______ _____ _____    ______ ____
ROOT
ATOM      1  C2  UNL     1     -53.538  56.649   5.083  0.00  0.00    +0.172 A 
ATOM      2  C3  UNL     1     -54.800  57.264   5.196  0.00  0.00    +0.040 A 
ATOM      3  C4  UNL     1     -54.902  58.649   5.341  0.00  0.00    +0.005 A 
ATOM      4  C5  UNL     1     -53.748  59.443   5.357  0.00  0.00    +0.018 A 
ATOM      5  C21 UNL     1     -52.488  58.830   5.283  0.00  0.00    +0.041 A 
ATOM      6  C22 UNL     1     -52.375  57.435   5.127  0.00  0.00    +0.172 A 
ENDROOT
BRANCH   4   7
ATOM      7  C6  UNL     1     -53.827  60.912   5.472  0.00  0.00    +0.079 C 
ATOM      8  N1  UNL     1     -53.539  61.618   4.417  0.00  0.00    -0.172 NA
ATOM      9  N2  UNL     1     -53.771  63.011   4.323  0.00  0.00    -0.222 N 
ATOM     10  C14 UNL     1     -54.055  63.711   5.404  0.00  0.00    +0.253 C 
ATOM     11  O2  UNL     1     -54.315  65.080   5.333  0.00  0.00    -0.271 OA
ATOM     12  C15 UNL     1     -54.071  63.034   6.753  0.00  0.00    +0.091 C 
ATOM     13  C16 UNL     1     -52.657  63.065   7.367  0.00  0.00    +0.035 C 
ATOM     14  C17 UNL     1     -52.490  62.117   8.524  0.00  0.00    -0.030 C 
ATOM     15  C18 UNL     1     -53.296  61.065   8.722  0.00  0.00    -0.030 C 
ATOM     16  C19 UNL     1     -54.579  60.872   7.959  0.00  0.00    +0.032 C 
ATOM     17  C20 UNL     1     -54.587  61.594   6.596  0.00  0.00    +0.056 C 
BRANCH   9  18
ATOM     18  C7  UNL     1     -53.758  63.592   2.964  0.00  0.00    +0.108 C 
ATOM     19  C8  UNL     1     -54.465  62.667   1.949  0.00  0.00    +0.024 C 
ATOM     20  C9  UNL     1     -54.551  63.260   0.531  0.00  0.00    +0.002 C 
ATOM     21  C10 UNL     1     -53.203  63.194  -0.208  0.00  0.00    +0.000 C 
ATOM     22  C11 UNL     1     -52.290  64.417   0.006  0.00  0.00    +0.000 C 
ATOM     23  C12 UNL     1     -52.304  65.037   1.416  0.00  0.00    +0.002 C 
ATOM     24  C13 UNL     1     -52.321  64.005   2.560  0.00  0.00    +0.024 C 
ENDBRANCH   9  18
ENDBRANCH   4   7
BRANCH   1  26
ATOM     25  C1  UNL     1     -54.481  54.366   4.675  0.00  0.00    +0.253 C 
ATOM     26  O1  UNL     1     -53.398  55.262   4.914  0.00  0.00    -0.468 OA
ENDBRANCH   1  26
BRANCH   6  27
ATOM     27  O3  UNL     1     -51.130  56.797   4.995  0.00  0.00    -0.472 OA
BRANCH  27  28
ATOM     28  C23 UNL     1     -50.096  56.815   5.978  0.00  0.00    +0.206 C 
BRANCH  28  29
ATOM     29  C24 UNL     1     -49.107  57.942   5.678  0.00  0.00    +0.051 C 
BRANCH  29  30
ATOM     30  C25 UNL     1     -48.667  58.650   6.968  0.00  0.00    +0.051 C 
BRANCH  30  31
ATOM     31  C26 UNL     1     -49.722  59.660   7.436  0.00  0.00    +0.206 C 
BRANCH  31  32
ATOM     32  O4  UNL     1     -50.078  60.545   6.372  0.00  0.00    -0.475 OA
BRANCH  32  33
ATOM     33  C27 UNL     1     -49.454  61.775   6.094  0.00  0.00    +0.139 A 
ATOM     34  C28 UNL     1     -50.040  62.767   5.282  0.00  0.00    +0.037 A 
ATOM     35  C29 UNL     1     -49.357  63.957   5.014  0.00  0.00    +0.006 A 
ATOM     36  C30 UNL     1     -48.086  64.187   5.565  0.00  0.00    +0.040 A 
ATOM     37  C32 UNL     1     -47.511  63.203   6.387  0.00  0.00    +0.006 A 
ATOM     38  C33 UNL     1     -48.189  62.010   6.647  0.00  0.00    +0.037 A 
BRANCH  36  39
ATOM     39  C31 UNL     1     -47.365  65.448   5.287  0.00  0.00    +0.208 A 
ATOM     40  N3  UNL     1     -47.647  66.297   4.276  0.00  0.00    -0.106 NA
ATOM     41  N4  UNL     1     -46.770  67.280   4.377  0.00  0.00    -0.021 NA
ATOM     42  N5  UNL     1     -45.975  67.061   5.408  0.00  0.00    -0.021 NA
ATOM     43  N6  UNL     1     -46.320  65.927   5.996  0.00  0.00    -0.106 NA
ENDBRANCH  36  39
ENDBRANCH  32  33
ENDBRANCH  31  32
ENDBRANCH  30  31
ENDBRANCH  29  30
ENDBRANCH  28  29
ENDBRANCH  27  28
ENDBRANCH   6  27
TORSDOF 11
ENDMDL
MODEL 4
REMARK VINA RESULT:      -9.4      2.358      8.309
REMARK  Name = ./data/4wxx_site2_bc02/pdb/l1c2.pdb
REMARK  11 active torsions:
REMARK  status: ('A' for Active; 'I' for Inactive)
REMARK    1  A    between atoms: O1_2  and  C2_3
REMARK    2  A    between atoms: C5_6  and  C6_7
REMARK    3  A    between atoms: N2_9  and  C7_10
REMARK    4  A    between atoms: C22_26  and  O3_27
REMARK    5  A    between atoms: O3_27  and  C23_28
REMARK    6  A    between atoms: C23_28  and  C24_29
REMARK    7  A    between atoms: C24_29  and  C25_30
REMARK    8  A    between atoms: C25_30  and  C26_31
REMARK    9  A    between atoms: C26_31  and  O4_32
REMARK   10  A    between atoms: O4_32  and  C27_33
REMARK   11  A    between atoms: C30_36  and  C31_37
REMARK                            x       y       z     vdW  Elec       q    Type
REMARK                         _______ _______ _______ _____ _____    ______ ____
ROOT
ATOM      1  C2  UNL     1     -48.595  59.204  10.231  0.00  0.00    +0.172 A 
ATOM      2  C3  UNL     1     -49.424  60.309  10.512  0.00  0.00    +0.040 A 
ATOM      3  C4  UNL     1     -49.848  61.155   9.486  0.00  0.00    +0.005 A 
ATOM      4  C5  UNL     1     -49.467  60.904   8.162  0.00  0.00    +0.018 A 
ATOM      5  C21 UNL     1     -48.611  59.827   7.883  0.00  0.00    +0.041 A 
ATOM      6  C22 UNL     1     -48.186  58.962   8.909  0.00  0.00    +0.172 A 
ENDROOT
BRANCH   4   7
ATOM      7  C6  UNL     1     -49.930  61.759   7.053  0.00  0.00    +0.079 C 
ATOM      8  N1  UNL     1     -49.165  62.748   6.690  0.00  0.00    -0.172 NA
ATOM      9  N2  UNL     1     -49.382  63.514   5.520  0.00  0.00    -0.222 N 
ATOM     10  C14 UNL     1     -50.526  63.426   4.872  0.00  0.00    +0.253 C 
ATOM     11  O2  UNL     1     -50.753  64.150   3.700  0.00  0.00    -0.271 OA
ATOM     12  C15 UNL     1     -51.632  62.553   5.415  0.00  0.00    +0.091 C 
ATOM     13  C16 UNL     1     -52.498  63.364   6.399  0.00  0.00    +0.035 C 
ATOM     14  C17 UNL     1     -53.389  62.504   7.255  0.00  0.00    -0.030 C 
ATOM     15  C18 UNL     1     -53.153  61.202   7.468  0.00  0.00    -0.030 C 
ATOM     16  C19 UNL     1     -52.130  60.425   6.684  0.00  0.00    +0.032 C 
ATOM     17  C20 UNL     1     -51.018  61.315   6.091  0.00  0.00    +0.056 C 
BRANCH   9  18
ATOM     18  C7  UNL     1     -48.243  64.327   5.044  0.00  0.00    +0.108 C 
ATOM     19  C8  UNL     1     -47.179  64.509   6.149  0.00  0.00    +0.024 C 
ATOM     20  C9  UNL     1     -45.931  65.280   5.682  0.00  0.00    +0.002 C 
ATOM     21  C10 UNL     1     -46.196  66.791   5.560  0.00  0.00    +0.000 C 
ATOM     22  C11 UNL     1     -46.718  67.244   4.182  0.00  0.00    +0.000 C 
ATOM     23  C12 UNL     1     -47.696  66.286   3.477  0.00  0.00    +0.002 C 
ATOM     24  C13 UNL     1     -48.740  65.649   4.412  0.00  0.00    +0.024 C 
ENDBRANCH   9  18
ENDBRANCH   4   7
BRANCH   1  26
ATOM     25  C1  UNL     1     -48.442  58.482  12.622  0.00  0.00    +0.253 C 
ATOM     26  O1  UNL     1     -48.167  58.319  11.233  0.00  0.00    -0.468 OA
ENDBRANCH   1  26
BRANCH   6  27
ATOM     27  O3  UNL     1     -47.373  57.844   8.654  0.00  0.00    -0.472 OA
BRANCH  27  28
ATOM     28  C23 UNL     1     -46.247  57.837   7.778  0.00  0.00    +0.206 C 
BRANCH  28  29
ATOM     29  C24 UNL     1     -45.420  56.571   7.998  0.00  0.00    +0.051 C 
BRANCH  29  30
ATOM     30  C25 UNL     1     -45.253  55.786   6.688  0.00  0.00    +0.051 C 
BRANCH  30  31
ATOM     31  C26 UNL     1     -46.499  54.946   6.380  0.00  0.00    +0.206 C 
BRANCH  31  32
ATOM     32  O4  UNL     1     -47.237  55.519   5.299  0.00  0.00    -0.475 OA
BRANCH  32  33
ATOM     33  C27 UNL     1     -48.629  55.719   5.281  0.00  0.00    +0.139 A 
ATOM     34  C28 UNL     1     -49.539  54.744   4.824  0.00  0.00    +0.037 A 
ATOM     35  C29 UNL     1     -50.910  55.013   4.799  0.00  0.00    +0.006 A 
ATOM     36  C30 UNL     1     -51.401  56.251   5.245  0.00  0.00    +0.040 A 
ATOM     37  C32 UNL     1     -50.494  57.215   5.715  0.00  0.00    +0.006 A 
ATOM     38  C33 UNL     1     -49.122  56.950   5.731  0.00  0.00    +0.037 A 
BRANCH  36  39
ATOM     39  C31 UNL     1     -52.853  56.534   5.224  0.00  0.00    +0.208 A 
ATOM     40  N3  UNL     1     -53.723  56.056   4.310  0.00  0.00    -0.106 NA
ATOM     41  N4  UNL     1     -54.902  56.553   4.644  0.00  0.00    -0.021 NA
ATOM     42  N5  UNL     1     -54.778  57.304   5.722  0.00  0.00    -0.021 NA
ATOM     43  N6  UNL     1     -53.513  57.314   6.108  0.00  0.00    -0.106 NA
ENDBRANCH  36  39
ENDBRANCH  32  33
ENDBRANCH  31  32
ENDBRANCH  30  31
ENDBRANCH  29  30
ENDBRANCH  28  29
ENDBRANCH  27  28
ENDBRANCH   6  27
TORSDOF 11
ENDMDL
MODEL 5
REMARK VINA RESULT:      -8.8      3.043      9.211
REMARK  Name = ./data/4wxx_site2_bc02/pdb/l1c2.pdb
REMARK  11 active torsions:
REMARK  status: ('A' for Active; 'I' for Inactive)
REMARK    1  A    between atoms: O1_2  and  C2_3
REMARK    2  A    between atoms: C5_6  and  C6_7
REMARK    3  A    between atoms: N2_9  and  C7_10
REMARK    4  A    between atoms: C22_26  and  O3_27
REMARK    5  A    between atoms: O3_27  and  C23_28
REMARK    6  A    between atoms: C23_28  and  C24_29
REMARK    7  A    between atoms: C24_29  and  C25_30
REMARK    8  A    between atoms: C25_30  and  C26_31
REMARK    9  A    between atoms: C26_31  and  O4_32
REMARK   10  A    between atoms: O4_32  and  C27_33
REMARK   11  A    between atoms: C30_36  and  C31_37
REMARK                            x       y       z     vdW  Elec       q    Type
REMARK                         _______ _______ _______ _____ _____    ______ ____
ROOT
ATOM      1  C2  UNL     1     -51.310  64.345   3.189  0.00  0.00    +0.172 A 
ATOM      2  C3  UNL     1     -50.131  64.588   3.921  0.00  0.00    +0.040 A 
ATOM      3  C4  UNL     1     -49.923  63.969   5.155  0.00  0.00    +0.005 A 
ATOM      4  C5  UNL     1     -50.879  63.085   5.670  0.00  0.00    +0.018 A 
ATOM      5  C21 UNL     1     -52.072  62.869   4.962  0.00  0.00    +0.041 A 
ATOM      6  C22 UNL     1     -52.286  63.481   3.712  0.00  0.00    +0.172 A 
ENDROOT
BRANCH   4   7
ATOM      7  C6  UNL     1     -50.670  62.389   6.953  0.00  0.00    +0.079 C 
ATOM      8  N1  UNL     1     -49.837  61.389   6.971  0.00  0.00    -0.172 NA
ATOM      9  N2  UNL     1     -49.387  60.769   8.161  0.00  0.00    -0.222 N 
ATOM     10  C14 UNL     1     -49.994  61.011   9.306  0.00  0.00    +0.253 C 
ATOM     11  O2  UNL     1     -49.551  60.434  10.498  0.00  0.00    -0.271 OA
ATOM     12  C15 UNL     1     -51.212  61.903   9.336  0.00  0.00    +0.091 C 
ATOM     13  C16 UNL     1     -52.479  61.061   9.090  0.00  0.00    +0.035 C 
ATOM     14  C17 UNL     1     -53.686  61.890   8.745  0.00  0.00    -0.030 C 
ATOM     15  C18 UNL     1     -53.596  63.141   8.272  0.00  0.00    -0.030 C 
ATOM     16  C19 UNL     1     -52.307  63.917   8.272  0.00  0.00    +0.032 C 
ATOM     17  C20 UNL     1     -51.057  63.013   8.282  0.00  0.00    +0.056 C 
BRANCH   9  18
ATOM     18  C7  UNL     1     -48.177  59.927   8.050  0.00  0.00    +0.108 C 
ATOM     19  C8  UNL     1     -47.854  59.597   6.576  0.00  0.00    +0.024 C 
ATOM     20  C9  UNL     1     -46.556  58.789   6.396  0.00  0.00    +0.002 C 
ATOM     21  C10 UNL     1     -46.735  57.311   6.783  0.00  0.00    +0.000 C 
ATOM     22  C11 UNL     1     -46.461  56.996   8.267  0.00  0.00    +0.000 C 
ATOM     23  C12 UNL     1     -46.912  58.063   9.283  0.00  0.00    +0.002 C 
ATOM     24  C13 UNL     1     -48.284  58.689   8.973  0.00  0.00    +0.024 C 
ENDBRANCH   9  18
ENDBRANCH   4   7
BRANCH   1  26
ATOM     25  C1  UNL     1     -51.916  66.294   1.740  0.00  0.00    +0.253 C 
ATOM     26  O1  UNL     1     -51.543  64.932   1.934  0.00  0.00    -0.468 OA
ENDBRANCH   1  26
BRANCH   6  27
ATOM     27  O3  UNL     1     -53.446  63.243   2.953  0.00  0.00    -0.472 OA
BRANCH  27  28
ATOM     28  C23 UNL     1     -54.721  62.905   3.497  0.00  0.00    +0.206 C 
BRANCH  28  29
ATOM     29  C24 UNL     1     -54.899  61.387   3.510  0.00  0.00    +0.051 C 
BRANCH  29  30
ATOM     30  C25 UNL     1     -54.887  60.841   4.946  0.00  0.00    +0.051 C 
BRANCH  30  31
ATOM     31  C26 UNL     1     -54.489  59.361   4.975  0.00  0.00    +0.206 C 
BRANCH  31  32
ATOM     32  O4  UNL     1     -53.218  59.194   5.607  0.00  0.00    -0.475 OA
BRANCH  32  33
ATOM     33  C27 UNL     1     -52.441  58.021   5.574  0.00  0.00    +0.139 A 
ATOM     34  C28 UNL     1     -52.963  56.766   5.202  0.00  0.00    +0.037 A 
ATOM     35  C29 UNL     1     -52.149  55.629   5.220  0.00  0.00    +0.006 A 
ATOM     36  C30 UNL     1     -50.799  55.726   5.591  0.00  0.00    +0.040 A 
ATOM     37  C32 UNL     1     -50.278  56.981   5.946  0.00  0.00    +0.006 A 
ATOM     38  C33 UNL     1     -51.092  58.116   5.937  0.00  0.00    +0.037 A 
BRANCH  36  39
ATOM     39  C31 UNL     1     -49.937  54.524   5.604  0.00  0.00    +0.208 A 
ATOM     40  N3  UNL     1     -50.341  53.283   5.947  0.00  0.00    -0.106 NA
ATOM     41  N4  UNL     1     -49.271  52.514   5.837  0.00  0.00    -0.021 NA
ATOM     42  N5  UNL     1     -48.243  53.239   5.437  0.00  0.00    -0.021 NA
ATOM     43  N6  UNL     1     -48.624  54.496   5.284  0.00  0.00    -0.106 NA
ENDBRANCH  36  39
ENDBRANCH  32  33
ENDBRANCH  31  32
ENDBRANCH  30  31
ENDBRANCH  29  30
ENDBRANCH  28  29
ENDBRANCH  27  28
ENDBRANCH   6  27
TORSDOF 11
ENDMDL
MODEL 6
REMARK VINA RESULT:      -8.7      2.292      6.132
REMARK  Name = ./data/4wxx_site2_bc02/pdb/l1c2.pdb
REMARK  11 active torsions:
REMARK  status: ('A' for Active; 'I' for Inactive)
REMARK    1  A    between atoms: O1_2  and  C2_3
REMARK    2  A    between atoms: C5_6  and  C6_7
REMARK    3  A    between atoms: N2_9  and  C7_10
REMARK    4  A    between atoms: C22_26  and  O3_27
REMARK    5  A    between atoms: O3_27  and  C23_28
REMARK    6  A    between atoms: C23_28  and  C24_29
REMARK    7  A    between atoms: C24_29  and  C25_30
REMARK    8  A    between atoms: C25_30  and  C26_31
REMARK    9  A    between atoms: C26_31  and  O4_32
REMARK   10  A    between atoms: O4_32  and  C27_33
REMARK   11  A    between atoms: C30_36  and  C31_37
REMARK                            x       y       z     vdW  Elec       q    Type
REMARK                         _______ _______ _______ _____ _____    ______ ____
ROOT
ATOM      1  C2  UNL     1     -50.510  61.087   7.333  0.00  0.00    +0.172 A 
ATOM      2  C3  UNL     1     -49.515  60.507   8.144  0.00  0.00    +0.040 A 
ATOM      3  C4  UNL     1     -49.007  59.241   7.845  0.00  0.00    +0.005 A 
ATOM      4  C5  UNL     1     -49.471  58.542   6.724  0.00  0.00    +0.018 A 
ATOM      5  C21 UNL     1     -50.489  59.100   5.936  0.00  0.00    +0.041 A 
ATOM      6  C22 UNL     1     -51.001  60.380   6.223  0.00  0.00    +0.172 A 
ENDROOT
BRANCH   4   7
ATOM      7  C6  UNL     1     -48.926  57.220   6.363  0.00  0.00    +0.079 C 
ATOM      8  N1  UNL     1     -47.655  57.015   6.554  0.00  0.00    -0.172 NA
ATOM      9  N2  UNL     1     -47.044  55.743   6.449  0.00  0.00    -0.222 N 
ATOM     10  C14 UNL     1     -47.695  54.738   5.897  0.00  0.00    +0.253 C 
ATOM     11  O2  UNL     1     -47.125  53.467   5.808  0.00  0.00    -0.271 OA
ATOM     12  C15 UNL     1     -49.071  54.962   5.318  0.00  0.00    +0.091 C 
ATOM     13  C16 UNL     1     -48.950  55.410   3.848  0.00  0.00    +0.035 C 
ATOM     14  C17 UNL     1     -50.222  55.998   3.299  0.00  0.00    -0.030 C 
ATOM     15  C18 UNL     1     -51.192  56.488   4.083  0.00  0.00    -0.030 C 
ATOM     16  C19 UNL     1     -51.215  56.276   5.572  0.00  0.00    +0.032 C 
ATOM     17  C20 UNL     1     -49.817  56.006   6.167  0.00  0.00    +0.056 C 
BRANCH   9  18
ATOM     18  C7  UNL     1     -45.705  55.602   7.059  0.00  0.00    +0.108 C 
ATOM     19  C8  UNL     1     -45.687  56.131   8.510  0.00  0.00    +0.024 C 
ATOM     20  C9  UNL     1     -44.337  55.934   9.221  0.00  0.00    +0.002 C 
ATOM     21  C10 UNL     1     -43.278  56.944   8.744  0.00  0.00    +0.000 C 
ATOM     22  C11 UNL     1     -42.451  56.482   7.527  0.00  0.00    +0.000 C 
ATOM     23  C12 UNL     1     -43.210  55.678   6.454  0.00  0.00    +0.002 C 
ATOM     24  C13 UNL     1     -44.619  56.215   6.142  0.00  0.00    +0.024 C 
ENDBRANCH   9  18
ENDBRANCH   4   7
BRANCH   1  26
ATOM     25  C1  UNL     1     -52.120  62.631   8.469  0.00  0.00    +0.253 C 
ATOM     26  O1  UNL     1     -51.029  62.366   7.590  0.00  0.00    -0.468 OA
ENDBRANCH   1  26
BRANCH   6  27
ATOM     27  O3  UNL     1     -51.982  60.989   5.421  0.00  0.00    -0.472 OA
BRANCH  27  28
ATOM     28  C23 UNL     1     -53.335  60.549   5.312  0.00  0.00    +0.206 C 
BRANCH  28  29
ATOM     29  C24 UNL     1     -54.214  61.683   4.787  0.00  0.00    +0.051 C 
BRANCH  29  30
ATOM     30  C25 UNL     1     -53.687  62.216   3.446  0.00  0.00    +0.051 C 
BRANCH  30  31
ATOM     31  C26 UNL     1     -53.533  63.742   3.476  0.00  0.00    +0.206 C 
BRANCH  31  32
ATOM     32  O4  UNL     1     -52.417  64.151   2.683  0.00  0.00    -0.475 OA
BRANCH  32  33
ATOM     33  C27 UNL     1     -51.195  64.632   3.187  0.00  0.00    +0.139 A 
ATOM     34  C28 UNL     1     -50.461  65.663   2.566  0.00  0.00    +0.037 A 
ATOM     35  C29 UNL     1     -49.235  66.076   3.096  0.00  0.00    +0.006 A 
ATOM     36  C30 UNL     1     -48.727  65.482   4.262  0.00  0.00    +0.040 A 
ATOM     37  C32 UNL     1     -49.468  64.466   4.887  0.00  0.00    +0.006 A 
ATOM     38  C33 UNL     1     -50.688  64.046   4.354  0.00  0.00    +0.037 A 
BRANCH  36  39
ATOM     39  C31 UNL     1     -47.433  65.923   4.825  0.00  0.00    +0.208 A 
ATOM     40  N3  UNL     1     -46.649  66.892   4.306  0.00  0.00    -0.106 NA
ATOM     41  N4  UNL     1     -45.594  66.963   5.097  0.00  0.00    -0.021 NA
ATOM     42  N5  UNL     1     -45.711  66.081   6.074  0.00  0.00    -0.021 NA
ATOM     43  N6  UNL     1     -46.845  65.417   5.932  0.00  0.00    -0.106 NA
ENDBRANCH  36  39
ENDBRANCH  32  33
ENDBRANCH  31  32
ENDBRANCH  30  31
ENDBRANCH  29  30
ENDBRANCH  28  29
ENDBRANCH  27  28
ENDBRANCH   6  27
TORSDOF 11
ENDMDL
MODEL 7
REMARK VINA RESULT:      -7.9      3.618      6.673
REMARK  Name = ./data/4wxx_site2_bc02/pdb/l1c2.pdb
REMARK  11 active torsions:
REMARK  status: ('A' for Active; 'I' for Inactive)
REMARK    1  A    between atoms: O1_2  and  C2_3
REMARK    2  A    between atoms: C5_6  and  C6_7
REMARK    3  A    between atoms: N2_9  and  C7_10
REMARK    4  A    between atoms: C22_26  and  O3_27
REMARK    5  A    between atoms: O3_27  and  C23_28
REMARK    6  A    between atoms: C23_28  and  C24_29
REMARK    7  A    between atoms: C24_29  and  C25_30
REMARK    8  A    between atoms: C25_30  and  C26_31
REMARK    9  A    between atoms: C26_31  and  O4_32
REMARK   10  A    between atoms: O4_32  and  C27_33
REMARK   11  A    between atoms: C30_36  and  C31_37
REMARK                            x       y       z     vdW  Elec       q    Type
REMARK                         _______ _______ _______ _____ _____    ______ ____
ROOT
ATOM      1  C2  UNL     1     -49.348  63.000   5.593  0.00  0.00    +0.172 A 
ATOM      2  C3  UNL     1     -48.683  61.810   5.948  0.00  0.00    +0.040 A 
ATOM      3  C4  UNL     1     -49.375  60.599   5.993  0.00  0.00    +0.005 A 
ATOM      4  C5  UNL     1     -50.737  60.552   5.668  0.00  0.00    +0.018 A 
ATOM      5  C21 UNL     1     -51.411  61.741   5.350  0.00  0.00    +0.041 A 
ATOM      6  C22 UNL     1     -50.720  62.966   5.292  0.00  0.00    +0.172 A 
ENDROOT
BRANCH   4   7
ATOM      7  C6  UNL     1     -51.485  59.281   5.671  0.00  0.00    +0.079 C 
ATOM      8  N1  UNL     1     -50.907  58.237   5.151  0.00  0.00    -0.172 NA
ATOM      9  N2  UNL     1     -51.417  56.922   5.271  0.00  0.00    -0.222 N 
ATOM     10  C14 UNL     1     -52.646  56.724   5.701  0.00  0.00    +0.253 C 
ATOM     11  O2  UNL     1     -53.162  55.435   5.856  0.00  0.00    -0.271 OA
ATOM     12  C15 UNL     1     -53.535  57.906   6.007  0.00  0.00    +0.091 C 
ATOM     13  C16 UNL     1     -54.282  58.338   4.730  0.00  0.00    +0.035 C 
ATOM     14  C17 UNL     1     -54.902  59.705   4.838  0.00  0.00    -0.030 C 
ATOM     15  C18 UNL     1     -54.498  60.617   5.732  0.00  0.00    -0.030 C 
ATOM     16  C19 UNL     1     -53.565  60.283   6.864  0.00  0.00    +0.032 C 
ATOM     17  C20 UNL     1     -52.681  59.051   6.577  0.00  0.00    +0.056 C 
BRANCH   9  18
ATOM     18  C7  UNL     1     -50.477  55.821   4.973  0.00  0.00    +0.108 C 
ATOM     19  C8  UNL     1     -49.051  56.146   5.469  0.00  0.00    +0.024 C 
ATOM     20  C9  UNL     1     -48.047  54.999   5.257  0.00  0.00    +0.002 C 
ATOM     21  C10 UNL     1     -47.607  54.879   3.787  0.00  0.00    +0.000 C 
ATOM     22  C11 UNL     1     -48.496  53.964   2.921  0.00  0.00    +0.000 C 
ATOM     23  C12 UNL     1     -50.007  54.008   3.215  0.00  0.00    +0.002 C 
ATOM     24  C13 UNL     1     -50.558  55.421   3.479  0.00  0.00    +0.024 C 
ENDBRANCH   9  18
ENDBRANCH   4   7
BRANCH   1  26
ATOM     25  C1  UNL     1     -47.467  64.536   6.200  0.00  0.00    +0.253 C 
ATOM     26  O1  UNL     1     -48.680  64.233   5.515  0.00  0.00    -0.468 OA
ENDBRANCH   1  26
BRANCH   6  27
ATOM     27  O3  UNL     1     -51.355  64.165   4.925  0.00  0.00    -0.472 OA
BRANCH  27  28
ATOM     28  C23 UNL     1     -52.410  64.270   3.970  0.00  0.00    +0.206 C 
BRANCH  28  29
ATOM     29  C24 UNL     1     -53.727  64.586   4.677  0.00  0.00    +0.051 C 
BRANCH  29  30
ATOM     30  C25 UNL     1     -53.481  65.093   6.106  0.00  0.00    +0.051 C 
BRANCH  30  31
ATOM     31  C26 UNL     1     -54.452  64.447   7.101  0.00  0.00    +0.206 C 
BRANCH  31  32
ATOM     32  O4  UNL     1     -53.835  64.299   8.381  0.00  0.00    -0.475 OA
BRANCH  32  33
ATOM     33  C27 UNL     1     -52.948  63.269   8.742  0.00  0.00    +0.139 A 
ATOM     34  C28 UNL     1     -53.371  62.068   9.348  0.00  0.00    +0.037 A 
ATOM     35  C29 UNL     1     -52.438  61.094   9.715  0.00  0.00    +0.006 A 
ATOM     36  C30 UNL     1     -51.070  61.291   9.468  0.00  0.00    +0.040 A 
ATOM     37  C32 UNL     1     -50.653  62.481   8.850  0.00  0.00    +0.006 A 
ATOM     38  C33 UNL     1     -51.583  63.459   8.492  0.00  0.00    +0.037 A 
BRANCH  36  39
ATOM     39  C31 UNL     1     -50.083  60.257   9.851  0.00  0.00    +0.208 A 
ATOM     40  N3  UNL     1     -49.816  59.870  11.116  0.00  0.00    -0.106 NA
ATOM     41  N4  UNL     1     -48.876  58.946  11.017  0.00  0.00    -0.021 NA
ATOM     42  N5  UNL     1     -48.570  58.758   9.746  0.00  0.00    -0.021 NA
ATOM     43  N6  UNL     1     -49.304  59.560   8.994  0.00  0.00    -0.106 NA
ENDBRANCH  36  39
ENDBRANCH  32  33
ENDBRANCH  31  32
ENDBRANCH  30  31
ENDBRANCH  29  30
ENDBRANCH  28  29
ENDBRANCH  27  28
ENDBRANCH   6  27
TORSDOF 11
ENDMDL
MODEL 8
REMARK VINA RESULT:      -7.7      2.713      7.399
REMARK  Name = ./data/4wxx_site2_bc02/pdb/l1c2.pdb
REMARK  11 active torsions:
REMARK  status: ('A' for Active; 'I' for Inactive)
REMARK    1  A    between atoms: O1_2  and  C2_3
REMARK    2  A    between atoms: C5_6  and  C6_7
REMARK    3  A    between atoms: N2_9  and  C7_10
REMARK    4  A    between atoms: C22_26  and  O3_27
REMARK    5  A    between atoms: O3_27  and  C23_28
REMARK    6  A    between atoms: C23_28  and  C24_29
REMARK    7  A    between atoms: C24_29  and  C25_30
REMARK    8  A    between atoms: C25_30  and  C26_31
REMARK    9  A    between atoms: C26_31  and  O4_32
REMARK   10  A    between atoms: O4_32  and  C27_33
REMARK   11  A    between atoms: C30_36  and  C31_37
REMARK                            x       y       z     vdW  Elec       q    Type
REMARK                         _______ _______ _______ _____ _____    ______ ____
ROOT
ATOM      1  C2  UNL     1     -51.653  56.214   5.239  0.00  0.00    +0.172 A 
ATOM      2  C3  UNL     1     -52.875  56.838   4.920  0.00  0.00    +0.040 A 
ATOM      3  C4  UNL     1     -53.039  58.212   5.108  0.00  0.00    +0.005 A 
ATOM      4  C5  UNL     1     -51.981  58.987   5.600  0.00  0.00    +0.018 A 
ATOM      5  C21 UNL     1     -50.776  58.362   5.955  0.00  0.00    +0.041 A 
ATOM      6  C22 UNL     1     -50.597  56.980   5.760  0.00  0.00    +0.172 A 
ENDROOT
BRANCH   4   7
ATOM      7  C6  UNL     1     -52.114  60.445   5.774  0.00  0.00    +0.079 C 
ATOM      8  N1  UNL     1     -51.030  61.164   5.711  0.00  0.00    -0.172 NA
ATOM      9  N2  UNL     1     -51.033  62.578   5.654  0.00  0.00    -0.222 N 
ATOM     10  C14 UNL     1     -52.134  63.250   5.921  0.00  0.00    +0.253 C 
ATOM     11  O2  UNL     1     -52.170  64.644   5.843  0.00  0.00    -0.271 OA
ATOM     12  C15 UNL     1     -53.379  62.512   6.352  0.00  0.00    +0.091 C 
ATOM     13  C16 UNL     1     -53.374  62.334   7.883  0.00  0.00    +0.035 C 
ATOM     14  C17 UNL     1     -54.369  61.313   8.366  0.00  0.00    -0.030 C 
ATOM     15  C18 UNL     1     -54.877  60.362   7.570  0.00  0.00    -0.030 C 
ATOM     16  C19 UNL     1     -54.694  60.372   6.077  0.00  0.00    +0.032 C 
ATOM     17  C20 UNL     1     -53.446  61.158   5.625  0.00  0.00    +0.056 C 
BRANCH   9  18
ATOM     18  C7  UNL     1     -49.781  63.222   5.204  0.00  0.00    +0.108 C 
ATOM     19  C8  UNL     1     -48.900  63.642   6.402  0.00  0.00    +0.024 C 
ATOM     20  C9  UNL     1     -47.547  64.246   5.989  0.00  0.00    +0.002 C 
ATOM     21  C10 UNL     1     -47.688  65.688   5.470  0.00  0.00    +0.000 C 
ATOM     22  C11 UNL     1     -47.949  65.804   3.955  0.00  0.00    +0.000 C 
ATOM     23  C12 UNL     1     -48.861  64.727   3.337  0.00  0.00    +0.002 C 
ATOM     24  C13 UNL     1     -50.082  64.362   4.201  0.00  0.00    +0.024 C 
ENDBRANCH   9  18
ENDBRANCH   4   7
BRANCH   1  26
ATOM     25  C1  UNL     1     -51.977  53.816   5.881  0.00  0.00    +0.253 C 
ATOM     26  O1  UNL     1     -51.445  54.839   5.043  0.00  0.00    -0.468 OA
ENDBRANCH   1  26
BRANCH   6  27
ATOM     27  O3  UNL     1     -49.384  56.334   6.055  0.00  0.00    -0.472 OA
BRANCH  27  28
ATOM     28  C23 UNL     1     -48.810  55.282   5.280  0.00  0.00    +0.206 C 
BRANCH  28  29
ATOM     29  C24 UNL     1     -47.308  55.510   5.117  0.00  0.00    +0.051 C 
BRANCH  29  30
ATOM     30  C25 UNL     1     -46.525  54.898   6.288  0.00  0.00    +0.051 C 
BRANCH  30  31
ATOM     31  C26 UNL     1     -45.132  55.525   6.414  0.00  0.00    +0.206 C 
BRANCH  31  32
ATOM     32  O4  UNL     1     -45.047  56.331   7.592  0.00  0.00    -0.475 OA
BRANCH  32  33
ATOM     33  C27 UNL     1     -46.027  57.241   8.027  0.00  0.00    +0.139 A 
ATOM     34  C28 UNL     1     -46.557  57.231   9.333  0.00  0.00    +0.037 A 
ATOM     35  C29 UNL     1     -47.554  58.141   9.698  0.00  0.00    +0.006 A 
ATOM     36  C30 UNL     1     -48.028  59.086   8.774  0.00  0.00    +0.040 A 
ATOM     37  C32 UNL     1     -47.487  59.103   7.478  0.00  0.00    +0.006 A 
ATOM     38  C33 UNL     1     -46.497  58.189   7.110  0.00  0.00    +0.037 A 
BRANCH  36  39
ATOM     39  C31 UNL     1     -49.079  60.052   9.162  0.00  0.00    +0.208 A 
ATOM     40  N3  UNL     1     -49.358  61.199   8.509  0.00  0.00    -0.106 NA
ATOM     41  N4  UNL     1     -50.345  61.765   9.183  0.00  0.00    -0.021 NA
ATOM     42  N5  UNL     1     -50.674  61.003  10.210  0.00  0.00    -0.021 NA
ATOM     43  N6  UNL     1     -49.903  59.929  10.226  0.00  0.00    -0.106 NA
ENDBRANCH  36  39
ENDBRANCH  32  33
ENDBRANCH  31  32
ENDBRANCH  30  31
ENDBRANCH  29  30
ENDBRANCH  28  29
ENDBRANCH  27  28
ENDBRANCH   6  27
TORSDOF 11
ENDMDL
MODEL 9
REMARK VINA RESULT:      -7.7      2.194      4.333
REMARK  Name = ./data/4wxx_site2_bc02/pdb/l1c2.pdb
REMARK  11 active torsions:
REMARK  status: ('A' for Active; 'I' for Inactive)
REMARK    1  A    between atoms: O1_2  and  C2_3
REMARK    2  A    between atoms: C5_6  and  C6_7
REMARK    3  A    between atoms: N2_9  and  C7_10
REMARK    4  A    between atoms: C22_26  and  O3_27
REMARK    5  A    between atoms: O3_27  and  C23_28
REMARK    6  A    between atoms: C23_28  and  C24_29
REMARK    7  A    between atoms: C24_29  and  C25_30
REMARK    8  A    between atoms: C25_30  and  C26_31
REMARK    9  A    between atoms: C26_31  and  O4_32
REMARK   10  A    between atoms: O4_32  and  C27_33
REMARK   11  A    between atoms: C30_36  and  C31_37
REMARK                            x       y       z     vdW  Elec       q    Type
REMARK                         _______ _______ _______ _____ _____    ______ ____
ROOT
ATOM      1  C2  UNL     1     -49.316  59.944   7.642  0.00  0.00    +0.172 A 
ATOM      2  C3  UNL     1     -48.198  59.113   7.852  0.00  0.00    +0.040 A 
ATOM      3  C4  UNL     1     -48.163  57.824   7.316  0.00  0.00    +0.005 A 
ATOM      4  C5  UNL     1     -49.235  57.350   6.549  0.00  0.00    +0.018 A 
ATOM      5  C21 UNL     1     -50.367  58.160   6.371  0.00  0.00    +0.041 A 
ATOM      6  C22 UNL     1     -50.408  59.465   6.898  0.00  0.00    +0.172 A 
ENDROOT
BRANCH   4   7
ATOM      7  C6  UNL     1     -49.210  56.007   5.940  0.00  0.00    +0.079 C 
ATOM      8  N1  UNL     1     -50.317  55.323   5.935  0.00  0.00    -0.172 NA
ATOM      9  N2  UNL     1     -50.489  54.121   5.209  0.00  0.00    -0.222 N 
ATOM     10  C14 UNL     1     -49.444  53.496   4.704  0.00  0.00    +0.253 C 
ATOM     11  O2  UNL     1     -49.590  52.324   3.959  0.00  0.00    -0.271 OA
ATOM     12  C15 UNL     1     -48.055  54.031   4.955  0.00  0.00    +0.091 C 
ATOM     13  C16 UNL     1     -47.501  53.443   6.268  0.00  0.00    +0.035 C 
ATOM     14  C17 UNL     1     -46.295  54.178   6.786  0.00  0.00    -0.030 C 
ATOM     15  C18 UNL     1     -45.999  55.434   6.424  0.00  0.00    -0.030 C 
ATOM     16  C19 UNL     1     -46.697  56.136   5.290  0.00  0.00    +0.032 C 
ATOM     17  C20 UNL     1     -48.102  55.568   5.000  0.00  0.00    +0.056 C 
BRANCH   9  18
ATOM     18  C7  UNL     1     -51.881  53.676   4.990  0.00  0.00    +0.108 C 
ATOM     19  C8  UNL     1     -52.894  54.769   5.396  0.00  0.00    +0.024 C 
ATOM     20  C9  UNL     1     -54.358  54.390   5.113  0.00  0.00    +0.002 C 
ATOM     21  C10 UNL     1     -54.902  53.377   6.136  0.00  0.00    +0.000 C 
ATOM     22  C11 UNL     1     -54.680  51.898   5.760  0.00  0.00    +0.000 C 
ATOM     23  C12 UNL     1     -53.346  51.567   5.063  0.00  0.00    +0.002 C 
ATOM     24  C13 UNL     1     -52.127  52.299   5.654  0.00  0.00    +0.024 C 
ENDBRANCH   9  18
ENDBRANCH   4   7
BRANCH   1  26
ATOM     25  C1  UNL     1     -50.082  61.628   9.328  0.00  0.00    +0.253 C 
ATOM     26  O1  UNL     1     -49.378  61.253   8.147  0.00  0.00    -0.468 OA
ENDBRANCH   1  26
BRANCH   6  27
ATOM     27  O3  UNL     1     -51.504  60.320   6.691  0.00  0.00    -0.472 OA
BRANCH  27  28
ATOM     28  C23 UNL     1     -52.849  60.028   7.066  0.00  0.00    +0.206 C 
BRANCH  28  29
ATOM     29  C24 UNL     1     -53.702  61.293   6.988  0.00  0.00    +0.051 C 
BRANCH  29  30
ATOM     30  C25 UNL     1     -53.987  61.680   5.529  0.00  0.00    +0.051 C 
BRANCH  30  31
ATOM     31  C26 UNL     1     -53.684  63.162   5.277  0.00  0.00    +0.206 C 
BRANCH  31  32
ATOM     32  O4  UNL     1     -52.635  63.306   4.318  0.00  0.00    -0.475 OA
BRANCH  32  33
ATOM     33  C27 UNL     1     -51.368  63.860   4.575  0.00  0.00    +0.139 A 
ATOM     34  C28 UNL     1     -50.749  63.804   5.841  0.00  0.00    +0.037 A 
ATOM     35  C29 UNL     1     -49.502  64.402   6.045  0.00  0.00    +0.006 A 
ATOM     36  C30 UNL     1     -48.843  65.051   4.989  0.00  0.00    +0.040 A 
ATOM     37  C32 UNL     1     -49.455  65.092   3.725  0.00  0.00    +0.006 A 
ATOM     38  C33 UNL     1     -50.705  64.502   3.523  0.00  0.00    +0.037 A 
BRANCH  36  39
ATOM     39  C31 UNL     1     -47.521  65.680   5.203  0.00  0.00    +0.208 A 
ATOM     40  N3  UNL     1     -47.007  66.680   4.458  0.00  0.00    -0.106 NA
ATOM     41  N4  UNL     1     -45.816  66.936   4.972  0.00  0.00    -0.021 NA
ATOM     42  N5  UNL     1     -45.595  66.134   5.998  0.00  0.00    -0.021 NA
ATOM     43  N6  UNL     1     -46.638  65.339   6.168  0.00  0.00    -0.106 NA
ENDBRANCH  36  39
ENDBRANCH  32  33
ENDBRANCH  31  32
ENDBRANCH  30  31
ENDBRANCH  29  30
ENDBRANCH  28  29
ENDBRANCH  27  28
ENDBRANCH   6  27
TORSDOF 11
ENDMDL
