MODEL 1
REMARK VINA RESULT:      -8.2      0.000      0.000
REMARK  Name = ./data/4wxx_site2_bc02/pdb/l1c0.pdb
REMARK  11 active torsions:
REMARK  status: ('A' for Active; 'I' for Inactive)
REMARK    1  A    between atoms: O1_2  and  C2_3
REMARK    2  A    between atoms: C5_6  and  C6_7
REMARK    3  A    between atoms: N2_9  and  C7_10
REMARK    4  A    between atoms: C22_26  and  O3_27
REMARK    5  A    between atoms: O3_27  and  C23_28
REMARK    6  A    between atoms: C23_28  and  C24_29
REMARK    7  A    between atoms: C24_29  and  C25_30
REMARK    8  A    between atoms: C25_30  and  C26_31
REMARK    9  A    between atoms: C26_31  and  O4_32
REMARK   10  A    between atoms: O4_32  and  C27_33
REMARK   11  A    between atoms: C30_36  and  C31_37
REMARK                            x       y       z     vdW  Elec       q    Type
REMARK                         _______ _______ _______ _____ _____    ______ ____
ROOT
ATOM      1  C2  UNL     1     -73.451  61.319 -11.303  0.00  0.00    +0.172 A 
ATOM      2  C3  UNL     1     -73.009  60.017 -11.590  0.00  0.00    +0.040 A 
ATOM      3  C4  UNL     1     -71.903  59.812 -12.414  0.00  0.00    +0.005 A 
ATOM      4  C5  UNL     1     -71.203  60.898 -12.969  0.00  0.00    +0.018 A 
ATOM      5  C21 UNL     1     -71.643  62.201 -12.667  0.00  0.00    +0.041 A 
ATOM      6  C22 UNL     1     -72.776  62.417 -11.855  0.00  0.00    +0.172 A 
ENDROOT
BRANCH   4   7
ATOM      7  C6  UNL     1     -70.021  60.648 -13.850  0.00  0.00    +0.079 C 
ATOM      8  N1  UNL     1     -69.072  59.873 -13.415  0.00  0.00    -0.172 NA
ATOM      9  N2  UNL     1     -67.908  59.558 -14.146  0.00  0.00    -0.222 N 
ATOM     10  C14 UNL     1     -67.830  59.816 -15.432  0.00  0.00    +0.253 C 
ATOM     11  O2  UNL     1     -66.705  59.403 -16.154  0.00  0.00    -0.271 OA
ATOM     12  C15 UNL     1     -68.996  60.483 -16.152  0.00  0.00    +0.091 C 
ATOM     13  C16 UNL     1     -68.556  61.363 -17.340  0.00  0.00    +0.035 C 
ATOM     14  C17 UNL     1     -67.685  62.477 -16.843  0.00  0.00    -0.030 C 
ATOM     15  C18 UNL     1     -68.004  63.116 -15.710  0.00  0.00    -0.030 C 
ATOM     16  C19 UNL     1     -69.273  62.799 -14.953  0.00  0.00    +0.032 C 
ATOM     17  C20 UNL     1     -69.837  61.355 -15.177  0.00  0.00    +0.056 C 
BRANCH   9  18
ATOM     18  C7  UNL     1     -66.833  58.862 -13.406  0.00  0.00    +0.108 C 
ATOM     19  C8  UNL     1     -66.848  59.251 -11.903  0.00  0.00    +0.024 C 
ATOM     20  C9  UNL     1     -65.445  59.232 -11.275  0.00  0.00    +0.002 C 
ATOM     21  C10 UNL     1     -64.942  57.823 -10.944  0.00  0.00    +0.000 C 
ATOM     22  C11 UNL     1     -64.840  56.905 -12.169  0.00  0.00    +0.000 C 
ATOM     23  C12 UNL     1     -66.219  56.426 -12.651  0.00  0.00    +0.002 C 
ATOM     24  C13 UNL     1     -66.864  57.339 -13.706  0.00  0.00    +0.024 C 
ENDBRANCH   9  18
ENDBRANCH   4   7
BRANCH   1  26
ATOM     25  C1  UNL     1     -75.891  61.158 -10.777  0.00  0.00    +0.253 C 
ATOM     26  O1  UNL     1     -74.560  61.565 -10.478  0.00  0.00    -0.468 OA
ENDBRANCH   1  26
BRANCH   6  27
ATOM     27  O3  UNL     1     -73.264  63.703 -11.566  0.00  0.00    -0.472 OA
BRANCH  27  28
ATOM     28  C23 UNL     1     -72.675  64.932 -11.988  0.00  0.00    +0.206 C 
BRANCH  28  29
ATOM     29  C24 UNL     1     -71.305  65.127 -11.333  0.00  0.00    +0.051 C 
BRANCH  29  30
ATOM     30  C25 UNL     1     -71.393  66.068 -10.126  0.00  0.00    +0.051 C 
BRANCH  30  31
ATOM     31  C26 UNL     1     -70.547  65.559  -8.959  0.00  0.00    +0.206 C 
BRANCH  31  32
ATOM     32  O4  UNL     1     -69.287  66.228  -8.962  0.00  0.00    -0.475 OA
BRANCH  32  33
ATOM     33  C27 UNL     1     -68.751  66.928  -7.873  0.00  0.00    +0.139 A 
ATOM     34  C28 UNL     1     -68.533  66.230  -6.683  0.00  0.00    +0.037 A 
ATOM     35  C29 UNL     1     -68.033  66.883  -5.555  0.00  0.00    +0.006 A 
ATOM     36  C30 UNL     1     -67.721  68.256  -5.601  0.00  0.00    +0.040 A 
ATOM     37  C32 UNL     1     -67.918  68.953  -6.810  0.00  0.00    +0.006 A 
ATOM     38  C33 UNL     1     -68.434  68.298  -7.933  0.00  0.00    +0.037 A 
BRANCH  36  39
ATOM     39  C31 UNL     1     -67.202  68.954  -4.397  0.00  0.00    +0.208 A 
ATOM     40  N3  UNL     1     -67.918  69.234  -3.286  0.00  0.00    -0.106 NA
ATOM     41  N4  UNL     1     -67.078  69.834  -2.460  0.00  0.00    -0.021 NA
ATOM     42  N5  UNL     1     -65.889  69.928  -3.029  0.00  0.00    -0.021 NA
ATOM     43  N6  UNL     1     -65.932  69.388  -4.232  0.00  0.00    -0.106 NA
ENDBRANCH  36  39
ENDBRANCH  32  33
ENDBRANCH  31  32
ENDBRANCH  30  31
ENDBRANCH  29  30
ENDBRANCH  28  29
ENDBRANCH  27  28
ENDBRANCH   6  27
TORSDOF 11
ENDMDL
MODEL 2
REMARK VINA RESULT:      -6.9      5.362      8.524
REMARK  Name = ./data/4wxx_site2_bc02/pdb/l1c0.pdb
REMARK  11 active torsions:
REMARK  status: ('A' for Active; 'I' for Inactive)
REMARK    1  A    between atoms: O1_2  and  C2_3
REMARK    2  A    between atoms: C5_6  and  C6_7
REMARK    3  A    between atoms: N2_9  and  C7_10
REMARK    4  A    between atoms: C22_26  and  O3_27
REMARK    5  A    between atoms: O3_27  and  C23_28
REMARK    6  A    between atoms: C23_28  and  C24_29
REMARK    7  A    between atoms: C24_29  and  C25_30
REMARK    8  A    between atoms: C25_30  and  C26_31
REMARK    9  A    between atoms: C26_31  and  O4_32
REMARK   10  A    between atoms: O4_32  and  C27_33
REMARK   11  A    between atoms: C30_36  and  C31_37
REMARK                            x       y       z     vdW  Elec       q    Type
REMARK                         _______ _______ _______ _____ _____    ______ ____
ROOT
ATOM      1  C2  UNL     1     -78.363  61.298 -12.276  0.00  0.00    +0.172 A 
ATOM      2  C3  UNL     1     -77.794  61.431 -13.553  0.00  0.00    +0.040 A 
ATOM      3  C4  UNL     1     -76.558  62.058 -13.714  0.00  0.00    +0.005 A 
ATOM      4  C5  UNL     1     -75.853  62.562 -12.607  0.00  0.00    +0.018 A 
ATOM      5  C21 UNL     1     -76.421  62.413 -11.327  0.00  0.00    +0.041 A 
ATOM      6  C22 UNL     1     -77.682  61.803 -11.159  0.00  0.00    +0.172 A 
ENDROOT
BRANCH   4   7
ATOM      7  C6  UNL     1     -74.530  63.230 -12.809  0.00  0.00    +0.079 C 
ATOM      8  N1  UNL     1     -73.944  63.115 -13.964  0.00  0.00    -0.172 NA
ATOM      9  N2  UNL     1     -72.699  63.695 -14.283  0.00  0.00    -0.222 N 
ATOM     10  C14 UNL     1     -72.170  64.619 -13.513  0.00  0.00    +0.253 C 
ATOM     11  O2  UNL     1     -70.983  65.250 -13.904  0.00  0.00    -0.271 OA
ATOM     12  C15 UNL     1     -72.890  65.065 -12.246  0.00  0.00    +0.091 C 
ATOM     13  C16 UNL     1     -71.930  65.520 -11.128  0.00  0.00    +0.035 C 
ATOM     14  C17 UNL     1     -71.052  64.375 -10.724  0.00  0.00    -0.030 C 
ATOM     15  C18 UNL     1     -71.574  63.148 -10.602  0.00  0.00    -0.030 C 
ATOM     16  C19 UNL     1     -73.054  62.896 -10.783  0.00  0.00    +0.032 C 
ATOM     17  C20 UNL     1     -73.799  63.935 -11.686  0.00  0.00    +0.056 C 
BRANCH   9  18
ATOM     18  C7  UNL     1     -72.076  63.263 -15.552  0.00  0.00    +0.108 C 
ATOM     19  C8  UNL     1     -70.917  62.262 -15.294  0.00  0.00    +0.024 C 
ATOM     20  C9  UNL     1     -69.802  62.367 -16.346  0.00  0.00    +0.002 C 
ATOM     21  C10 UNL     1     -70.146  61.683 -17.673  0.00  0.00    +0.000 C 
ATOM     22  C11 UNL     1     -71.391  62.262 -18.357  0.00  0.00    +0.000 C 
ATOM     23  C12 UNL     1     -72.691  61.827 -17.661  0.00  0.00    +0.002 C 
ATOM     24  C13 UNL     1     -73.161  62.788 -16.557  0.00  0.00    +0.024 C 
ENDBRANCH   9  18
ENDBRANCH   4   7
BRANCH   1  26
ATOM     25  C1  UNL     1     -80.783  60.970 -12.813  0.00  0.00    +0.253 C 
ATOM     26  O1  UNL     1     -79.603  60.673 -12.074  0.00  0.00    -0.468 OA
ENDBRANCH   1  26
BRANCH   6  27
ATOM     27  O3  UNL     1     -78.296  61.674  -9.901  0.00  0.00    -0.472 OA
BRANCH  27  28
ATOM     28  C23 UNL     1     -78.057  60.627  -8.960  0.00  0.00    +0.206 C 
BRANCH  28  29
ATOM     29  C24 UNL     1     -76.556  60.457  -8.711  0.00  0.00    +0.051 C 
BRANCH  29  30
ATOM     30  C25 UNL     1     -76.062  59.090  -9.198  0.00  0.00    +0.051 C 
BRANCH  30  31
ATOM     31  C26 UNL     1     -75.729  59.116 -10.689  0.00  0.00    +0.206 C 
BRANCH  31  32
ATOM     32  O4  UNL     1     -74.534  58.373 -10.920  0.00  0.00    -0.475 OA
BRANCH  32  33
ATOM     33  C27 UNL     1     -73.349  58.906 -11.446  0.00  0.00    +0.139 A 
ATOM     34  C28 UNL     1     -72.137  58.343 -11.041  0.00  0.00    +0.037 A 
ATOM     35  C29 UNL     1     -70.924  58.854 -11.505  0.00  0.00    +0.006 A 
ATOM     36  C30 UNL     1     -70.900  59.937 -12.406  0.00  0.00    +0.040 A 
ATOM     37  C32 UNL     1     -72.125  60.487 -12.834  0.00  0.00    +0.006 A 
ATOM     38  C33 UNL     1     -73.338  59.981 -12.354  0.00  0.00    +0.037 A 
BRANCH  36  39
ATOM     39  C31 UNL     1     -69.609  60.490 -12.890  0.00  0.00    +0.208 A 
ATOM     40  N3  UNL     1     -69.118  61.711 -12.585  0.00  0.00    -0.106 NA
ATOM     41  N4  UNL     1     -67.948  61.790 -13.197  0.00  0.00    -0.021 NA
ATOM     42  N5  UNL     1     -67.718  60.670 -13.859  0.00  0.00    -0.021 NA
ATOM     43  N6  UNL     1     -68.730  59.840 -13.687  0.00  0.00    -0.106 NA
ENDBRANCH  36  39
ENDBRANCH  32  33
ENDBRANCH  31  32
ENDBRANCH  30  31
ENDBRANCH  29  30
ENDBRANCH  28  29
ENDBRANCH  27  28
ENDBRANCH   6  27
TORSDOF 11
ENDMDL
MODEL 3
REMARK VINA RESULT:      -6.9      7.351     11.033
REMARK  Name = ./data/4wxx_site2_bc02/pdb/l1c0.pdb
REMARK  11 active torsions:
REMARK  status: ('A' for Active; 'I' for Inactive)
REMARK    1  A    between atoms: O1_2  and  C2_3
REMARK    2  A    between atoms: C5_6  and  C6_7
REMARK    3  A    between atoms: N2_9  and  C7_10
REMARK    4  A    between atoms: C22_26  and  O3_27
REMARK    5  A    between atoms: O3_27  and  C23_28
REMARK    6  A    between atoms: C23_28  and  C24_29
REMARK    7  A    between atoms: C24_29  and  C25_30
REMARK    8  A    between atoms: C25_30  and  C26_31
REMARK    9  A    between atoms: C26_31  and  O4_32
REMARK   10  A    between atoms: O4_32  and  C27_33
REMARK   11  A    between atoms: C30_36  and  C31_37
REMARK                            x       y       z     vdW  Elec       q    Type
REMARK                         _______ _______ _______ _____ _____    ______ ____
ROOT
ATOM      1  C2  UNL     1     -76.739  59.756 -11.062  0.00  0.00    +0.172 A 
ATOM      2  C3  UNL     1     -75.436  59.288 -10.822  0.00  0.00    +0.040 A 
ATOM      3  C4  UNL     1     -74.332  60.013 -11.269  0.00  0.00    +0.005 A 
ATOM      4  C5  UNL     1     -74.494  61.226 -11.961  0.00  0.00    +0.018 A 
ATOM      5  C21 UNL     1     -75.802  61.697 -12.186  0.00  0.00    +0.041 A 
ATOM      6  C22 UNL     1     -76.925  60.957 -11.759  0.00  0.00    +0.172 A 
ENDROOT
BRANCH   4   7
ATOM      7  C6  UNL     1     -73.292  61.982 -12.429  0.00  0.00    +0.079 C 
ATOM      8  N1  UNL     1     -72.395  61.353 -13.130  0.00  0.00    -0.172 NA
ATOM      9  N2  UNL     1     -71.219  61.949 -13.630  0.00  0.00    -0.222 N 
ATOM     10  C14 UNL     1     -71.081  63.256 -13.648  0.00  0.00    +0.253 C 
ATOM     11  O2  UNL     1     -69.949  63.825 -14.241  0.00  0.00    -0.271 OA
ATOM     12  C15 UNL     1     -72.189  64.151 -13.104  0.00  0.00    +0.091 C 
ATOM     13  C16 UNL     1     -71.666  65.473 -12.506  0.00  0.00    +0.035 C 
ATOM     14  C17 UNL     1     -70.767  65.176 -11.345  0.00  0.00    -0.030 C 
ATOM     15  C18 UNL     1     -71.100  64.216 -10.473  0.00  0.00    -0.030 C 
ATOM     16  C19 UNL     1     -72.409  63.468 -10.582  0.00  0.00    +0.032 C 
ATOM     17  C20 UNL     1     -73.027  63.416 -12.020  0.00  0.00    +0.056 C 
BRANCH   9  18
ATOM     18  C7  UNL     1     -70.204  61.034 -14.194  0.00  0.00    +0.108 C 
ATOM     19  C8  UNL     1     -69.667  61.563 -15.551  0.00  0.00    +0.024 C 
ATOM     20  C9  UNL     1     -69.266  60.430 -16.510  0.00  0.00    +0.002 C 
ATOM     21  C10 UNL     1     -67.911  59.798 -16.177  0.00  0.00    +0.000 C 
ATOM     22  C11 UNL     1     -67.852  59.172 -14.778  0.00  0.00    +0.000 C 
ATOM     23  C12 UNL     1     -67.761  60.235 -13.670  0.00  0.00    +0.002 C 
ATOM     24  C13 UNL     1     -69.124  60.695 -13.131  0.00  0.00    +0.024 C 
ENDBRANCH   9  18
ENDBRANCH   4   7
BRANCH   1  26
ATOM     25  C1  UNL     1     -78.361  59.065  -9.289  0.00  0.00    +0.253 C 
ATOM     26  O1  UNL     1     -77.874  59.055 -10.627  0.00  0.00    -0.468 OA
ENDBRANCH   1  26
BRANCH   6  27
ATOM     27  O3  UNL     1     -78.243  61.379 -12.003  0.00  0.00    -0.472 OA
BRANCH  27  28
ATOM     28  C23 UNL     1     -79.048  61.002 -13.120  0.00  0.00    +0.206 C 
BRANCH  28  29
ATOM     29  C24 UNL     1     -80.309  61.867 -13.194  0.00  0.00    +0.051 C 
BRANCH  29  30
ATOM     30  C25 UNL     1     -81.561  61.009 -13.409  0.00  0.00    +0.051 C 
BRANCH  30  31
ATOM     31  C26 UNL     1     -82.397  60.913 -12.134  0.00  0.00    +0.206 C 
BRANCH  31  32
ATOM     32  O4  UNL     1     -83.703  61.433 -12.384  0.00  0.00    -0.475 OA
BRANCH  32  33
ATOM     33  C27 UNL     1     -84.083  62.767 -12.188  0.00  0.00    +0.139 A 
ATOM     34  C28 UNL     1     -83.481  63.747 -12.980  0.00  0.00    +0.037 A 
ATOM     35  C29 UNL     1     -83.795  65.096 -12.806  0.00  0.00    +0.006 A 
ATOM     36  C30 UNL     1     -84.741  65.493 -11.841  0.00  0.00    +0.040 A 
ATOM     37  C32 UNL     1     -85.367  64.500 -11.061  0.00  0.00    +0.006 A 
ATOM     38  C33 UNL     1     -85.037  63.151 -11.227  0.00  0.00    +0.037 A 
BRANCH  36  39
ATOM     39  C31 UNL     1     -85.066  66.929 -11.647  0.00  0.00    +0.208 A 
ATOM     40  N3  UNL     1     -85.823  67.432 -10.648  0.00  0.00    -0.106 NA
ATOM     41  N4  UNL     1     -85.839  68.741 -10.834  0.00  0.00    -0.021 NA
ATOM     42  N5  UNL     1     -85.127  69.045 -11.904  0.00  0.00    -0.021 NA
ATOM     43  N6  UNL     1     -84.630  67.941 -12.431  0.00  0.00    -0.106 NA
ENDBRANCH  36  39
ENDBRANCH  32  33
ENDBRANCH  31  32
ENDBRANCH  30  31
ENDBRANCH  29  30
ENDBRANCH  28  29
ENDBRANCH  27  28
ENDBRANCH   6  27
TORSDOF 11
ENDMDL
MODEL 4
REMARK VINA RESULT:      -6.6      3.912      6.830
REMARK  Name = ./data/4wxx_site2_bc02/pdb/l1c0.pdb
REMARK  11 active torsions:
REMARK  status: ('A' for Active; 'I' for Inactive)
REMARK    1  A    between atoms: O1_2  and  C2_3
REMARK    2  A    between atoms: C5_6  and  C6_7
REMARK    3  A    between atoms: N2_9  and  C7_10
REMARK    4  A    between atoms: C22_26  and  O3_27
REMARK    5  A    between atoms: O3_27  and  C23_28
REMARK    6  A    between atoms: C23_28  and  C24_29
REMARK    7  A    between atoms: C24_29  and  C25_30
REMARK    8  A    between atoms: C25_30  and  C26_31
REMARK    9  A    between atoms: C26_31  and  O4_32
REMARK   10  A    between atoms: O4_32  and  C27_33
REMARK   11  A    between atoms: C30_36  and  C31_37
REMARK                            x       y       z     vdW  Elec       q    Type
REMARK                         _______ _______ _______ _____ _____    ______ ____
ROOT
ATOM      1  C2  UNL     1     -70.105  66.993  -8.318  0.00  0.00    +0.172 A 
ATOM      2  C3  UNL     1     -71.469  66.976  -8.650  0.00  0.00    +0.040 A 
ATOM      3  C4  UNL     1     -71.940  66.143  -9.665  0.00  0.00    +0.005 A 
ATOM      4  C5  UNL     1     -71.065  65.299 -10.371  0.00  0.00    +0.018 A 
ATOM      5  C21 UNL     1     -69.700  65.309 -10.025  0.00  0.00    +0.041 A 
ATOM      6  C22 UNL     1     -69.212  66.168  -9.017  0.00  0.00    +0.172 A 
ENDROOT
BRANCH   4   7
ATOM      7  C6  UNL     1     -71.597  64.417 -11.455  0.00  0.00    +0.079 C 
ATOM      8  N1  UNL     1     -72.649  63.693 -11.210  0.00  0.00    -0.172 NA
ATOM      9  N2  UNL     1     -73.248  62.822 -12.144  0.00  0.00    -0.222 N 
ATOM     10  C14 UNL     1     -72.937  62.886 -13.419  0.00  0.00    +0.253 C 
ATOM     11  O2  UNL     1     -73.619  62.081 -14.338  0.00  0.00    -0.271 OA
ATOM     12  C15 UNL     1     -71.903  63.894 -13.907  0.00  0.00    +0.091 C 
ATOM     13  C16 UNL     1     -71.117  63.410 -15.142  0.00  0.00    +0.035 C 
ATOM     14  C17 UNL     1     -70.353  62.168 -14.795  0.00  0.00    -0.030 C 
ATOM     15  C18 UNL     1     -69.727  62.081 -13.615  0.00  0.00    -0.030 C 
ATOM     16  C19 UNL     1     -69.700  63.240 -12.645  0.00  0.00    +0.032 C 
ATOM     17  C20 UNL     1     -70.888  64.250 -12.783  0.00  0.00    +0.056 C 
BRANCH   9  18
ATOM     18  C7  UNL     1     -74.284  61.906 -11.620  0.00  0.00    +0.108 C 
ATOM     19  C8  UNL     1     -73.641  60.682 -10.914  0.00  0.00    +0.024 C 
ATOM     20  C9  UNL     1     -74.497  59.412 -11.038  0.00  0.00    +0.002 C 
ATOM     21  C10 UNL     1     -75.693  59.383 -10.081  0.00  0.00    +0.000 C 
ATOM     22  C11 UNL     1     -76.674  60.544 -10.291  0.00  0.00    +0.000 C 
ATOM     23  C12 UNL     1     -76.123  61.874  -9.750  0.00  0.00    +0.002 C 
ATOM     24  C13 UNL     1     -75.332  62.690 -10.784  0.00  0.00    +0.024 C 
ENDBRANCH   9  18
ENDBRANCH   4   7
BRANCH   1  26
ATOM     25  C1  UNL     1     -70.193  69.038  -6.882  0.00  0.00    +0.253 C 
ATOM     26  O1  UNL     1     -69.594  67.817  -7.303  0.00  0.00    -0.468 OA
ENDBRANCH   1  26
BRANCH   6  27
ATOM     27  O3  UNL     1     -67.851  66.232  -8.674  0.00  0.00    -0.472 OA
BRANCH  27  28
ATOM     28  C23 UNL     1     -67.283  67.063  -7.662  0.00  0.00    +0.206 C 
BRANCH  28  29
ATOM     29  C24 UNL     1     -66.737  68.357  -8.271  0.00  0.00    +0.051 C 
BRANCH  29  30
ATOM     30  C25 UNL     1     -65.895  69.138  -7.255  0.00  0.00    +0.051 C 
BRANCH  30  31
ATOM     31  C26 UNL     1     -66.776  69.952  -6.309  0.00  0.00    +0.206 C 
BRANCH  31  32
ATOM     32  O4  UNL     1     -66.611  69.469  -4.976  0.00  0.00    -0.475 OA
BRANCH  32  33
ATOM     33  C27 UNL     1     -66.593  68.116  -4.613  0.00  0.00    +0.139 A 
ATOM     34  C28 UNL     1     -65.363  67.456  -4.593  0.00  0.00    +0.037 A 
ATOM     35  C29 UNL     1     -65.287  66.100  -4.272  0.00  0.00    +0.006 A 
ATOM     36  C30 UNL     1     -66.449  65.375  -3.942  0.00  0.00    +0.040 A 
ATOM     37  C32 UNL     1     -67.686  66.050  -3.937  0.00  0.00    +0.006 A 
ATOM     38  C33 UNL     1     -67.759  67.405  -4.275  0.00  0.00    +0.037 A 
BRANCH  36  39
ATOM     39  C31 UNL     1     -66.370  63.929  -3.613  0.00  0.00    +0.208 A 
ATOM     40  N3  UNL     1     -66.117  62.938  -4.496  0.00  0.00    -0.106 NA
ATOM     41  N4  UNL     1     -66.113  61.820  -3.790  0.00  0.00    -0.021 NA
ATOM     42  N5  UNL     1     -66.357  62.097  -2.521  0.00  0.00    -0.021 NA
ATOM     43  N6  UNL     1     -66.519  63.399  -2.378  0.00  0.00    -0.106 NA
ENDBRANCH  36  39
ENDBRANCH  32  33
ENDBRANCH  31  32
ENDBRANCH  30  31
ENDBRANCH  29  30
ENDBRANCH  28  29
ENDBRANCH  27  28
ENDBRANCH   6  27
TORSDOF 11
ENDMDL
MODEL 5
REMARK VINA RESULT:      -6.5      1.516      2.386
REMARK  Name = ./data/4wxx_site2_bc02/pdb/l1c0.pdb
REMARK  11 active torsions:
REMARK  status: ('A' for Active; 'I' for Inactive)
REMARK    1  A    between atoms: O1_2  and  C2_3
REMARK    2  A    between atoms: C5_6  and  C6_7
REMARK    3  A    between atoms: N2_9  and  C7_10
REMARK    4  A    between atoms: C22_26  and  O3_27
REMARK    5  A    between atoms: O3_27  and  C23_28
REMARK    6  A    between atoms: C23_28  and  C24_29
REMARK    7  A    between atoms: C24_29  and  C25_30
REMARK    8  A    between atoms: C25_30  and  C26_31
REMARK    9  A    between atoms: C26_31  and  O4_32
REMARK   10  A    between atoms: O4_32  and  C27_33
REMARK   11  A    between atoms: C30_36  and  C31_37
REMARK                            x       y       z     vdW  Elec       q    Type
REMARK                         _______ _______ _______ _____ _____    ______ ____
ROOT
ATOM      1  C2  UNL     1     -73.360  62.946 -13.766  0.00  0.00    +0.172 A 
ATOM      2  C3  UNL     1     -72.739  63.305 -14.973  0.00  0.00    +0.040 A 
ATOM      3  C4  UNL     1     -71.533  62.714 -15.351  0.00  0.00    +0.005 A 
ATOM      4  C5  UNL     1     -70.919  61.743 -14.540  0.00  0.00    +0.018 A 
ATOM      5  C21 UNL     1     -71.554  61.376 -13.337  0.00  0.00    +0.041 A 
ATOM      6  C22 UNL     1     -72.760  61.989 -12.936  0.00  0.00    +0.172 A 
ENDROOT
BRANCH   4   7
ATOM      7  C6  UNL     1     -69.626  61.126 -14.970  0.00  0.00    +0.079 C 
ATOM      8  N1  UNL     1     -68.962  60.408 -14.112  0.00  0.00    -0.172 NA
ATOM      9  N2  UNL     1     -67.734  59.774 -14.391  0.00  0.00    -0.222 N 
ATOM     10  C14 UNL     1     -67.309  59.645 -15.628  0.00  0.00    +0.253 C 
ATOM     11  O2  UNL     1     -66.138  58.924 -15.885  0.00  0.00    -0.271 OA
ATOM     12  C15 UNL     1     -68.132  60.202 -16.783  0.00  0.00    +0.091 C 
ATOM     13  C16 UNL     1     -67.272  60.654 -17.981  0.00  0.00    +0.035 C 
ATOM     14  C17 UNL     1     -66.358  61.761 -17.552  0.00  0.00    -0.030 C 
ATOM     15  C18 UNL     1     -66.816  62.727 -16.746  0.00  0.00    -0.030 C 
ATOM     16  C19 UNL     1     -68.264  62.778 -16.316  0.00  0.00    +0.032 C 
ATOM     17  C20 UNL     1     -69.009  61.401 -16.325  0.00  0.00    +0.056 C 
BRANCH   9  18
ATOM     18  C7  UNL     1     -67.009  59.205 -13.235  0.00  0.00    +0.108 C 
ATOM     19  C8  UNL     1     -66.393  57.824 -13.587  0.00  0.00    +0.024 C 
ATOM     20  C9  UNL     1     -66.327  56.881 -12.375  0.00  0.00    +0.002 C 
ATOM     21  C10 UNL     1     -65.173  57.194 -11.418  0.00  0.00    +0.000 C 
ATOM     22  C11 UNL     1     -65.238  58.605 -10.818  0.00  0.00    +0.000 C 
ATOM     23  C12 UNL     1     -64.842  59.687 -11.837  0.00  0.00    +0.002 C 
ATOM     24  C13 UNL     1     -66.023  60.249 -12.643  0.00  0.00    +0.024 C 
ENDBRANCH   9  18
ENDBRANCH   4   7
BRANCH   1  26
ATOM     25  C1  UNL     1     -75.777  62.788 -13.142  0.00  0.00    +0.253 C 
ATOM     26  O1  UNL     1     -74.573  63.519 -13.353  0.00  0.00    -0.468 OA
ENDBRANCH   1  26
BRANCH   6  27
ATOM     27  O3  UNL     1     -73.398  61.675 -11.724  0.00  0.00    -0.472 OA
BRANCH  27  28
ATOM     28  C23 UNL     1     -73.049  62.189 -10.440  0.00  0.00    +0.206 C 
BRANCH  28  29
ATOM     29  C24 UNL     1     -71.798  63.067 -10.532  0.00  0.00    +0.051 C 
BRANCH  29  30
ATOM     30  C25 UNL     1     -72.074  64.484 -10.015  0.00  0.00    +0.051 C 
BRANCH  30  31
ATOM     31  C26 UNL     1     -71.770  65.536 -11.082  0.00  0.00    +0.206 C 
BRANCH  31  32
ATOM     32  O4  UNL     1     -70.555  66.207 -10.753  0.00  0.00    -0.475 OA
BRANCH  32  33
ATOM     33  C27 UNL     1     -70.147  66.532  -9.452  0.00  0.00    +0.139 A 
ATOM     34  C28 UNL     1     -69.073  65.828  -8.904  0.00  0.00    +0.037 A 
ATOM     35  C29 UNL     1     -68.645  66.085  -7.600  0.00  0.00    +0.006 A 
ATOM     36  C30 UNL     1     -69.276  67.073  -6.820  0.00  0.00    +0.040 A 
ATOM     37  C32 UNL     1     -70.342  67.800  -7.385  0.00  0.00    +0.006 A 
ATOM     38  C33 UNL     1     -70.779  67.528  -8.686  0.00  0.00    +0.037 A 
BRANCH  36  39
ATOM     39  C31 UNL     1     -68.828  67.337  -5.428  0.00  0.00    +0.208 A 
ATOM     40  N3  UNL     1     -68.466  66.395  -4.531  0.00  0.00    -0.106 NA
ATOM     41  N4  UNL     1     -68.120  67.054  -3.438  0.00  0.00    -0.021 NA
ATOM     42  N5  UNL     1     -68.263  68.352  -3.640  0.00  0.00    -0.021 NA
ATOM     43  N6  UNL     1     -68.699  68.561  -4.868  0.00  0.00    -0.106 NA
ENDBRANCH  36  39
ENDBRANCH  32  33
ENDBRANCH  31  32
ENDBRANCH  30  31
ENDBRANCH  29  30
ENDBRANCH  28  29
ENDBRANCH  27  28
ENDBRANCH   6  27
TORSDOF 11
ENDMDL
MODEL 6
REMARK VINA RESULT:      -5.4      5.904     10.701
REMARK  Name = ./data/4wxx_site2_bc02/pdb/l1c0.pdb
REMARK  11 active torsions:
REMARK  status: ('A' for Active; 'I' for Inactive)
REMARK    1  A    between atoms: O1_2  and  C2_3
REMARK    2  A    between atoms: C5_6  and  C6_7
REMARK    3  A    between atoms: N2_9  and  C7_10
REMARK    4  A    between atoms: C22_26  and  O3_27
REMARK    5  A    between atoms: O3_27  and  C23_28
REMARK    6  A    between atoms: C23_28  and  C24_29
REMARK    7  A    between atoms: C24_29  and  C25_30
REMARK    8  A    between atoms: C25_30  and  C26_31
REMARK    9  A    between atoms: C26_31  and  O4_32
REMARK   10  A    between atoms: O4_32  and  C27_33
REMARK   11  A    between atoms: C30_36  and  C31_37
REMARK                            x       y       z     vdW  Elec       q    Type
REMARK                         _______ _______ _______ _____ _____    ______ ____
ROOT
ATOM      1  C2  UNL     1     -78.252  61.729 -12.766  0.00  0.00    +0.172 A 
ATOM      2  C3  UNL     1     -78.018  63.065 -13.131  0.00  0.00    +0.040 A 
ATOM      3  C4  UNL     1     -76.719  63.571 -13.161  0.00  0.00    +0.005 A 
ATOM      4  C5  UNL     1     -75.618  62.759 -12.837  0.00  0.00    +0.018 A 
ATOM      5  C21 UNL     1     -75.858  61.416 -12.485  0.00  0.00    +0.041 A 
ATOM      6  C22 UNL     1     -77.171  60.904 -12.427  0.00  0.00    +0.172 A 
ENDROOT
BRANCH   4   7
ATOM      7  C6  UNL     1     -74.236  63.329 -12.877  0.00  0.00    +0.079 C 
ATOM      8  N1  UNL     1     -73.498  63.102 -13.924  0.00  0.00    -0.172 NA
ATOM      9  N2  UNL     1     -72.182  63.581 -14.085  0.00  0.00    -0.222 N 
ATOM     10  C14 UNL     1     -71.705  64.519 -13.298  0.00  0.00    +0.253 C 
ATOM     11  O2  UNL     1     -70.434  65.048 -13.542  0.00  0.00    -0.271 OA
ATOM     12  C15 UNL     1     -72.568  65.091 -12.179  0.00  0.00    +0.091 C 
ATOM     13  C16 UNL     1     -71.750  65.558 -10.957  0.00  0.00    +0.035 C 
ATOM     14  C17 UNL     1     -71.024  64.389 -10.364  0.00  0.00    -0.030 C 
ATOM     15  C18 UNL     1     -71.644  63.208 -10.253  0.00  0.00    -0.030 C 
ATOM     16  C19 UNL     1     -73.096  63.037 -10.638  0.00  0.00    +0.032 C 
ATOM     17  C20 UNL     1     -73.627  64.059 -11.698  0.00  0.00    +0.056 C 
BRANCH   9  18
ATOM     18  C7  UNL     1     -71.414  63.028 -15.222  0.00  0.00    +0.108 C 
ATOM     19  C8  UNL     1     -70.657  61.738 -14.809  0.00  0.00    +0.024 C 
ATOM     20  C9  UNL     1     -69.338  61.557 -15.578  0.00  0.00    +0.002 C 
ATOM     21  C10 UNL     1     -69.527  61.034 -17.005  0.00  0.00    +0.000 C 
ATOM     22  C11 UNL     1     -70.377  61.957 -17.889  0.00  0.00    +0.000 C 
ATOM     23  C12 UNL     1     -71.872  61.882 -17.537  0.00  0.00    +0.002 C 
ATOM     24  C13 UNL     1     -72.317  62.904 -16.479  0.00  0.00    +0.024 C 
ENDBRANCH   9  18
ENDBRANCH   4   7
BRANCH   1  26
ATOM     25  C1  UNL     1     -80.661  61.704 -13.440  0.00  0.00    +0.253 C 
ATOM     26  O1  UNL     1     -79.545  61.183 -12.725  0.00  0.00    -0.468 OA
ENDBRANCH   1  26
BRANCH   6  27
ATOM     27  O3  UNL     1     -77.448  59.581 -12.042  0.00  0.00    -0.472 OA
BRANCH  27  28
ATOM     28  C23 UNL     1     -76.847  58.887 -10.949  0.00  0.00    +0.206 C 
BRANCH  28  29
ATOM     29  C24 UNL     1     -75.554  59.581 -10.515  0.00  0.00    +0.051 C 
BRANCH  29  30
ATOM     30  C25 UNL     1     -75.745  60.338  -9.195  0.00  0.00    +0.051 C 
BRANCH  30  31
ATOM     31  C26 UNL     1     -76.908  59.766  -8.387  0.00  0.00    +0.206 C 
BRANCH  31  32
ATOM     32  O4  UNL     1     -77.873  60.791  -8.156  0.00  0.00    -0.475 OA
BRANCH  32  33
ATOM     33  C27 UNL     1     -79.199  60.759  -8.609  0.00  0.00    +0.139 A 
ATOM     34  C28 UNL     1     -79.518  59.881  -9.647  0.00  0.00    +0.037 A 
ATOM     35  C29 UNL     1     -80.814  59.829 -10.163  0.00  0.00    +0.006 A 
ATOM     36  C30 UNL     1     -81.830  60.649  -9.633  0.00  0.00    +0.040 A 
ATOM     37  C32 UNL     1     -81.511  61.515  -8.569  0.00  0.00    +0.006 A 
ATOM     38  C33 UNL     1     -80.208  61.575  -8.066  0.00  0.00    +0.037 A 
BRANCH  36  39
ATOM     39  C31 UNL     1     -83.206  60.603 -10.192  0.00  0.00    +0.208 A 
ATOM     40  N3  UNL     1     -84.088  61.626 -10.182  0.00  0.00    -0.106 NA
ATOM     41  N4  UNL     1     -85.169  61.174 -10.793  0.00  0.00    -0.021 NA
ATOM     42  N5  UNL     1     -84.975  59.921 -11.166  0.00  0.00    -0.021 NA
ATOM     43  N6  UNL     1     -83.764  59.538 -10.810  0.00  0.00    -0.106 NA
ENDBRANCH  36  39
ENDBRANCH  32  33
ENDBRANCH  31  32
ENDBRANCH  30  31
ENDBRANCH  29  30
ENDBRANCH  28  29
ENDBRANCH  27  28
ENDBRANCH   6  27
TORSDOF 11
ENDMDL
