MODEL 1
REMARK VINA RESULT:      -9.2      0.000      0.000
REMARK  Name = ./data/4wxx_site2_bc02/pdb/l0c0.pdb
REMARK  11 active torsions:
REMARK  status: ('A' for Active; 'I' for Inactive)
REMARK    1  A    between atoms: O1_2  and  C2_3
REMARK    2  A    between atoms: C5_6  and  C6_7
REMARK    3  A    between atoms: N2_9  and  C7_10
REMARK    4  A    between atoms: C19_23  and  O3_24
REMARK    5  A    between atoms: O3_24  and  C20_25
REMARK    6  A    between atoms: C20_25  and  C21_26
REMARK    7  A    between atoms: C21_26  and  C22_27
REMARK    8  A    between atoms: C22_27  and  C23_28
REMARK    9  A    between atoms: C23_28  and  O4_29
REMARK   10  A    between atoms: O4_29  and  C24_30
REMARK   11  A    between atoms: C27_33  and  C28_34
REMARK                            x       y       z     vdW  Elec       q    Type
REMARK                         _______ _______ _______ _____ _____    ______ ____
ROOT
ATOM      1  C2  UNL     1     -49.024  59.728   6.746  0.00  0.00    +0.172 A 
ATOM      2  C3  UNL     1     -47.953  58.844   6.969  0.00  0.00    +0.040 A 
ATOM      3  C4  UNL     1     -48.075  57.486   6.666  0.00  0.00    +0.005 A 
ATOM      4  C5  UNL     1     -49.271  56.976   6.135  0.00  0.00    +0.019 A 
ATOM      5  C18 UNL     1     -50.347  57.862   5.938  0.00  0.00    +0.041 A 
ATOM      6  C19 UNL     1     -50.226  59.236   6.218  0.00  0.00    +0.172 A 
ENDROOT
BRANCH   4   7
ATOM      7  C6  UNL     1     -49.438  55.545   5.747  0.00  0.00    +0.086 C 
ATOM      8  N1  UNL     1     -50.552  54.924   5.974  0.00  0.00    -0.171 NA
ATOM      9  N2  UNL     1     -50.486  53.619   5.494  0.00  0.00    -0.222 N 
ATOM     10  C14 UNL     1     -49.329  53.401   4.964  0.00  0.00    +0.257 C 
ATOM     11  O2  UNL     1     -48.962  52.179   4.401  0.00  0.00    -0.270 OA
ATOM     12  C15 UNL     1     -48.459  54.626   5.030  0.00  0.00    +0.110 C 
ATOM     13  C16 UNL     1     -47.203  54.333   5.865  0.00  0.00    +0.015 C 
ATOM     14  C17 UNL     1     -48.132  55.103   3.603  0.00  0.00    +0.015 C 
BRANCH   9  15
ATOM     15  C7  UNL     1     -51.611  52.678   5.574  0.00  0.00    +0.108 C 
ATOM     16  C8  UNL     1     -52.376  52.907   6.897  0.00  0.00    +0.024 C 
ATOM     17  C9  UNL     1     -53.756  52.230   6.950  0.00  0.00    +0.002 C 
ATOM     18  C10 UNL     1     -54.873  53.148   6.427  0.00  0.00    +0.000 C 
ATOM     19  C11 UNL     1     -54.892  53.297   4.901  0.00  0.00    +0.000 C 
ATOM     20  C12 UNL     1     -53.579  53.842   4.318  0.00  0.00    +0.002 C 
ATOM     21  C13 UNL     1     -52.467  52.776   4.287  0.00  0.00    +0.024 C 
ENDBRANCH   9  15
ENDBRANCH   4   7
BRANCH   1  23
ATOM     22  C1  UNL     1     -47.849  61.936   6.648  0.00  0.00    +0.253 C 
ATOM     23  O1  UNL     1     -48.934  61.099   7.036  0.00  0.00    -0.468 OA
ENDBRANCH   1  23
BRANCH   6  24
ATOM     24  O3  UNL     1     -51.274  60.145   5.984  0.00  0.00    -0.472 OA
BRANCH  24  25
ATOM     25  C20 UNL     1     -52.657  59.901   6.255  0.00  0.00    +0.206 C 
BRANCH  25  26
ATOM     26  C21 UNL     1     -53.491  59.968   4.968  0.00  0.00    +0.051 C 
BRANCH  26  27
ATOM     27  C22 UNL     1     -54.122  61.355   4.798  0.00  0.00    +0.051 C 
BRANCH  27  28
ATOM     28  C23 UNL     1     -53.239  62.261   3.935  0.00  0.00    +0.206 C 
BRANCH  28  29
ATOM     29  O4  UNL     1     -52.941  63.475   4.627  0.00  0.00    -0.475 OA
BRANCH  29  30
ATOM     30  C24 UNL     1     -51.654  64.007   4.815  0.00  0.00    +0.139 A 
ATOM     31  C25 UNL     1     -51.097  64.222   6.089  0.00  0.00    +0.037 A 
ATOM     32  C26 UNL     1     -49.811  64.756   6.218  0.00  0.00    +0.006 A 
ATOM     33  C27 UNL     1     -49.054  65.081   5.079  0.00  0.00    +0.040 A 
ATOM     34  C29 UNL     1     -49.613  64.860   3.809  0.00  0.00    +0.006 A 
ATOM     35  C30 UNL     1     -50.900  64.327   3.681  0.00  0.00    +0.037 A 
BRANCH  33  36
ATOM     36  C28 UNL     1     -47.689  65.645   5.217  0.00  0.00    +0.208 A 
ATOM     37  N3  UNL     1     -47.136  66.563   4.392  0.00  0.00    -0.106 NA
ATOM     38  N4  UNL     1     -45.919  66.782   4.863  0.00  0.00    -0.021 NA
ATOM     39  N5  UNL     1     -45.721  66.037   5.937  0.00  0.00    -0.021 NA
ATOM     40  N6  UNL     1     -46.803  65.318   6.183  0.00  0.00    -0.106 NA
ENDBRANCH  33  36
ENDBRANCH  29  30
ENDBRANCH  28  29
ENDBRANCH  27  28
ENDBRANCH  26  27
ENDBRANCH  25  26
ENDBRANCH  24  25
ENDBRANCH   6  24
TORSDOF 11
ENDMDL
MODEL 2
REMARK VINA RESULT:      -9.2      2.140      3.658
REMARK  Name = ./data/4wxx_site2_bc02/pdb/l0c0.pdb
REMARK  11 active torsions:
REMARK  status: ('A' for Active; 'I' for Inactive)
REMARK    1  A    between atoms: O1_2  and  C2_3
REMARK    2  A    between atoms: C5_6  and  C6_7
REMARK    3  A    between atoms: N2_9  and  C7_10
REMARK    4  A    between atoms: C19_23  and  O3_24
REMARK    5  A    between atoms: O3_24  and  C20_25
REMARK    6  A    between atoms: C20_25  and  C21_26
REMARK    7  A    between atoms: C21_26  and  C22_27
REMARK    8  A    between atoms: C22_27  and  C23_28
REMARK    9  A    between atoms: C23_28  and  O4_29
REMARK   10  A    between atoms: O4_29  and  C24_30
REMARK   11  A    between atoms: C27_33  and  C28_34
REMARK                            x       y       z     vdW  Elec       q    Type
REMARK                         _______ _______ _______ _____ _____    ______ ____
ROOT
ATOM      1  C2  UNL     1     -52.843  62.287   7.803  0.00  0.00    +0.172 A 
ATOM      2  C3  UNL     1     -51.661  62.231   8.564  0.00  0.00    +0.040 A 
ATOM      3  C4  UNL     1     -50.733  61.206   8.363  0.00  0.00    +0.005 A 
ATOM      4  C5  UNL     1     -50.965  60.210   7.399  0.00  0.00    +0.019 A 
ATOM      5  C18 UNL     1     -52.161  60.259   6.660  0.00  0.00    +0.041 A 
ATOM      6  C19 UNL     1     -53.090  61.302   6.838  0.00  0.00    +0.172 A 
ENDROOT
BRANCH   4   7
ATOM      7  C6  UNL     1     -49.985  59.122   7.110  0.00  0.00    +0.086 C 
ATOM      8  N1  UNL     1     -50.384  57.979   6.650  0.00  0.00    -0.171 NA
ATOM      9  N2  UNL     1     -49.294  57.142   6.422  0.00  0.00    -0.222 N 
ATOM     10  C14 UNL     1     -48.198  57.746   6.741  0.00  0.00    +0.257 C 
ATOM     11  O2  UNL     1     -46.939  57.159   6.628  0.00  0.00    -0.270 OA
ATOM     12  C15 UNL     1     -48.467  59.143   7.231  0.00  0.00    +0.110 C 
ATOM     13  C16 UNL     1     -47.991  59.290   8.684  0.00  0.00    +0.015 C 
ATOM     14  C17 UNL     1     -47.809  60.157   6.278  0.00  0.00    +0.015 C 
BRANCH   9  15
ATOM     15  C7  UNL     1     -49.426  55.789   5.866  0.00  0.00    +0.108 C 
ATOM     16  C8  UNL     1     -50.914  55.375   5.877  0.00  0.00    +0.024 C 
ATOM     17  C9  UNL     1     -51.227  54.135   5.021  0.00  0.00    +0.002 C 
ATOM     18  C10 UNL     1     -51.592  54.506   3.574  0.00  0.00    +0.000 C 
ATOM     19  C11 UNL     1     -50.389  54.919   2.718  0.00  0.00    +0.000 C 
ATOM     20  C12 UNL     1     -49.609  56.115   3.285  0.00  0.00    +0.002 C 
ATOM     21  C13 UNL     1     -48.727  55.721   4.485  0.00  0.00    +0.024 C 
ENDBRANCH   9  15
ENDBRANCH   4   7
BRANCH   1  23
ATOM     22  C1  UNL     1     -53.665  64.627   7.459  0.00  0.00    +0.253 C 
ATOM     23  O1  UNL     1     -53.794  63.306   7.976  0.00  0.00    -0.468 OA
ENDBRANCH   1  23
BRANCH   6  24
ATOM     24  O3  UNL     1     -54.269  61.393   6.075  0.00  0.00    -0.472 OA
BRANCH  24  25
ATOM     25  C20 UNL     1     -54.573  60.604   4.923  0.00  0.00    +0.206 C 
BRANCH  25  26
ATOM     26  C21 UNL     1     -54.569  61.462   3.650  0.00  0.00    +0.051 C 
BRANCH  26  27
ATOM     27  C22 UNL     1     -54.779  62.942   3.989  0.00  0.00    +0.051 C 
BRANCH  27  28
ATOM     28  C23 UNL     1     -53.554  63.777   3.603  0.00  0.00    +0.206 C 
BRANCH  28  29
ATOM     29  O4  UNL     1     -52.352  63.092   3.956  0.00  0.00    -0.475 OA
BRANCH  29  30
ATOM     30  C24 UNL     1     -51.126  63.709   4.260  0.00  0.00    +0.139 A 
ATOM     31  C25 UNL     1     -50.285  63.263   5.298  0.00  0.00    +0.037 A 
ATOM     32  C26 UNL     1     -49.076  63.916   5.559  0.00  0.00    +0.006 A 
ATOM     33  C27 UNL     1     -48.680  65.022   4.787  0.00  0.00    +0.040 A 
ATOM     34  C29 UNL     1     -49.520  65.460   3.749  0.00  0.00    +0.006 A 
ATOM     35  C30 UNL     1     -50.730  64.808   3.491  0.00  0.00    +0.037 A 
BRANCH  33  36
ATOM     36  C28 UNL     1     -47.397  65.713   5.063  0.00  0.00    +0.208 A 
ATOM     37  N3  UNL     1     -46.868  66.707   4.315  0.00  0.00    -0.106 NA
ATOM     38  N4  UNL     1     -45.726  67.028   4.901  0.00  0.00    -0.021 NA
ATOM     39  N5  UNL     1     -45.550  66.272   5.971  0.00  0.00    -0.021 NA
ATOM     40  N6  UNL     1     -46.572  65.442   6.099  0.00  0.00    -0.106 NA
ENDBRANCH  33  36
ENDBRANCH  29  30
ENDBRANCH  28  29
ENDBRANCH  27  28
ENDBRANCH  26  27
ENDBRANCH  25  26
ENDBRANCH  24  25
ENDBRANCH   6  24
TORSDOF 11
ENDMDL
MODEL 3
REMARK VINA RESULT:      -8.5      3.045      9.354
REMARK  Name = ./data/4wxx_site2_bc02/pdb/l0c0.pdb
REMARK  11 active torsions:
REMARK  status: ('A' for Active; 'I' for Inactive)
REMARK    1  A    between atoms: O1_2  and  C2_3
REMARK    2  A    between atoms: C5_6  and  C6_7
REMARK    3  A    between atoms: N2_9  and  C7_10
REMARK    4  A    between atoms: C19_23  and  O3_24
REMARK    5  A    between atoms: O3_24  and  C20_25
REMARK    6  A    between atoms: C20_25  and  C21_26
REMARK    7  A    between atoms: C21_26  and  C22_27
REMARK    8  A    between atoms: C22_27  and  C23_28
REMARK    9  A    between atoms: C23_28  and  O4_29
REMARK   10  A    between atoms: O4_29  and  C24_30
REMARK   11  A    between atoms: C27_33  and  C28_34
REMARK                            x       y       z     vdW  Elec       q    Type
REMARK                         _______ _______ _______ _____ _____    ______ ____
ROOT
ATOM      1  C2  UNL     1     -49.259  59.983   9.680  0.00  0.00    +0.172 A 
ATOM      2  C3  UNL     1     -50.013  61.148   9.913  0.00  0.00    +0.040 A 
ATOM      3  C4  UNL     1     -50.303  62.030   8.870  0.00  0.00    +0.005 A 
ATOM      4  C5  UNL     1     -49.845  61.772   7.567  0.00  0.00    +0.019 A 
ATOM      5  C18 UNL     1     -49.069  60.619   7.346  0.00  0.00    +0.041 A 
ATOM      6  C19 UNL     1     -48.792  59.712   8.387  0.00  0.00    +0.172 A 
ENDROOT
BRANCH   4   7
ATOM      7  C6  UNL     1     -50.168  62.654   6.407  0.00  0.00    +0.086 C 
ATOM      8  N1  UNL     1     -51.373  62.708   5.934  0.00  0.00    -0.171 NA
ATOM      9  N2  UNL     1     -51.440  63.621   4.885  0.00  0.00    -0.222 N 
ATOM     10  C14 UNL     1     -50.279  64.148   4.682  0.00  0.00    +0.257 C 
ATOM     11  O2  UNL     1     -50.031  65.097   3.691  0.00  0.00    -0.270 OA
ATOM     12  C15 UNL     1     -49.260  63.614   5.651  0.00  0.00    +0.110 C 
ATOM     13  C16 UNL     1     -48.140  62.890   4.888  0.00  0.00    +0.015 C 
ATOM     14  C17 UNL     1     -48.740  64.761   6.536  0.00  0.00    +0.015 C 
BRANCH   9  15
ATOM     15  C7  UNL     1     -52.686  63.928   4.168  0.00  0.00    +0.108 C 
ATOM     16  C8  UNL     1     -52.440  63.817   2.647  0.00  0.00    +0.024 C 
ATOM     17  C9  UNL     1     -53.727  63.780   1.805  0.00  0.00    +0.002 C 
ATOM     18  C10 UNL     1     -54.233  62.345   1.581  0.00  0.00    +0.000 C 
ATOM     19  C11 UNL     1     -54.901  61.725   2.814  0.00  0.00    +0.000 C 
ATOM     20  C12 UNL     1     -53.990  61.672   4.050  0.00  0.00    +0.002 C 
ATOM     21  C13 UNL     1     -53.836  63.050   4.721  0.00  0.00    +0.024 C 
ENDBRANCH   9  15
ENDBRANCH   4   7
BRANCH   1  23
ATOM     22  C1  UNL     1     -49.494  59.129  12.021  0.00  0.00    +0.253 C 
ATOM     23  O1  UNL     1     -48.952  59.074  10.705  0.00  0.00    -0.468 OA
ENDBRANCH   1  23
BRANCH   6  24
ATOM     24  O3  UNL     1     -48.058  58.530   8.175  0.00  0.00    -0.472 OA
BRANCH  24  25
ATOM     25  C20 UNL     1     -46.637  58.411   8.264  0.00  0.00    +0.206 C 
BRANCH  25  26
ATOM     26  C21 UNL     1     -46.237  57.178   9.087  0.00  0.00    +0.051 C 
BRANCH  26  27
ATOM     27  C22 UNL     1     -45.344  56.240   8.267  0.00  0.00    +0.051 C 
BRANCH  27  28
ATOM     28  C23 UNL     1     -45.561  56.445   6.764  0.00  0.00    +0.206 C 
BRANCH  28  29
ATOM     29  O4  UNL     1     -46.191  55.299   6.189  0.00  0.00    -0.475 OA
BRANCH  29  30
ATOM     30  C24 UNL     1     -47.471  55.284   5.609  0.00  0.00    +0.139 A 
ATOM     31  C25 UNL     1     -48.033  54.128   5.035  0.00  0.00    +0.037 A 
ATOM     32  C26 UNL     1     -49.312  54.169   4.469  0.00  0.00    +0.006 A 
ATOM     33  C27 UNL     1     -50.056  55.361   4.471  0.00  0.00    +0.040 A 
ATOM     34  C29 UNL     1     -49.493  56.511   5.050  0.00  0.00    +0.006 A 
ATOM     35  C30 UNL     1     -48.213  56.469   5.613  0.00  0.00    +0.037 A 
BRANCH  33  36
ATOM     36  C28 UNL     1     -51.413  55.403   3.872  0.00  0.00    +0.208 A 
ATOM     37  N3  UNL     1     -52.569  55.512   4.565  0.00  0.00    -0.106 NA
ATOM     38  N4  UNL     1     -53.533  55.503   3.658  0.00  0.00    -0.021 NA
ATOM     39  N5  UNL     1     -53.003  55.398   2.451  0.00  0.00    -0.021 NA
ATOM     40  N6  UNL     1     -51.686  55.333   2.551  0.00  0.00    -0.106 NA
ENDBRANCH  33  36
ENDBRANCH  29  30
ENDBRANCH  28  29
ENDBRANCH  27  28
ENDBRANCH  26  27
ENDBRANCH  25  26
ENDBRANCH  24  25
ENDBRANCH   6  24
TORSDOF 11
ENDMDL
MODEL 4
REMARK VINA RESULT:      -8.4      3.814      6.736
REMARK  Name = ./data/4wxx_site2_bc02/pdb/l0c0.pdb
REMARK  11 active torsions:
REMARK  status: ('A' for Active; 'I' for Inactive)
REMARK    1  A    between atoms: O1_2  and  C2_3
REMARK    2  A    between atoms: C5_6  and  C6_7
REMARK    3  A    between atoms: N2_9  and  C7_10
REMARK    4  A    between atoms: C19_23  and  O3_24
REMARK    5  A    between atoms: O3_24  and  C20_25
REMARK    6  A    between atoms: C20_25  and  C21_26
REMARK    7  A    between atoms: C21_26  and  C22_27
REMARK    8  A    between atoms: C22_27  and  C23_28
REMARK    9  A    between atoms: C23_28  and  O4_29
REMARK   10  A    between atoms: O4_29  and  C24_30
REMARK   11  A    between atoms: C27_33  and  C28_34
REMARK                            x       y       z     vdW  Elec       q    Type
REMARK                         _______ _______ _______ _____ _____    ______ ____
ROOT
ATOM      1  C2  UNL     1     -53.893  61.851   7.151  0.00  0.00    +0.172 A 
ATOM      2  C3  UNL     1     -54.470  60.725   7.766  0.00  0.00    +0.040 A 
ATOM      3  C4  UNL     1     -54.093  59.435   7.386  0.00  0.00    +0.005 A 
ATOM      4  C5  UNL     1     -53.132  59.237   6.381  0.00  0.00    +0.019 A 
ATOM      5  C18 UNL     1     -52.578  60.368   5.753  0.00  0.00    +0.041 A 
ATOM      6  C19 UNL     1     -52.934  61.672   6.145  0.00  0.00    +0.172 A 
ENDROOT
BRANCH   4   7
ATOM      7  C6  UNL     1     -52.657  57.883   5.973  0.00  0.00    +0.086 C 
ATOM      8  N1  UNL     1     -51.390  57.625   5.886  0.00  0.00    -0.171 NA
ATOM      9  N2  UNL     1     -51.190  56.295   5.527  0.00  0.00    -0.222 N 
ATOM     10  C14 UNL     1     -52.327  55.701   5.378  0.00  0.00    +0.257 C 
ATOM     11  O2  UNL     1     -52.450  54.360   5.015  0.00  0.00    -0.270 OA
ATOM     12  C15 UNL     1     -53.472  56.636   5.658  0.00  0.00    +0.110 C 
ATOM     13  C16 UNL     1     -54.337  56.797   4.398  0.00  0.00    +0.015 C 
ATOM     14  C17 UNL     1     -54.270  56.125   6.871  0.00  0.00    +0.015 C 
BRANCH   9  15
ATOM     15  C7  UNL     1     -49.857  55.695   5.385  0.00  0.00    +0.108 C 
ATOM     16  C8  UNL     1     -49.958  54.169   5.599  0.00  0.00    +0.024 C 
ATOM     17  C9  UNL     1     -48.711  53.388   5.148  0.00  0.00    +0.002 C 
ATOM     18  C10 UNL     1     -48.805  52.943   3.679  0.00  0.00    +0.000 C 
ATOM     19  C11 UNL     1     -48.583  54.078   2.672  0.00  0.00    +0.000 C 
ATOM     20  C12 UNL     1     -49.569  55.246   2.831  0.00  0.00    +0.002 C 
ATOM     21  C13 UNL     1     -49.226  56.137   4.040  0.00  0.00    +0.024 C 
ENDBRANCH   9  15
ENDBRANCH   4   7
BRANCH   1  23
ATOM     22  C1  UNL     1     -53.744  63.848   8.654  0.00  0.00    +0.253 C 
ATOM     23  O1  UNL     1     -54.246  63.162   7.511  0.00  0.00    -0.468 OA
ENDBRANCH   1  23
BRANCH   6  24
ATOM     24  O3  UNL     1     -52.356  62.815   5.561  0.00  0.00    -0.472 OA
BRANCH  24  25
ATOM     25  C20 UNL     1     -50.953  63.052   5.420  0.00  0.00    +0.206 C 
BRANCH  25  26
ATOM     26  C21 UNL     1     -50.287  63.248   6.789  0.00  0.00    +0.051 C 
BRANCH  26  27
ATOM     27  C22 UNL     1     -49.235  62.163   7.045  0.00  0.00    +0.051 C 
BRANCH  27  28
ATOM     28  C23 UNL     1     -49.755  61.111   8.031  0.00  0.00    +0.206 C 
BRANCH  28  29
ATOM     29  O4  UNL     1     -49.539  59.796   7.518  0.00  0.00    -0.475 OA
BRANCH  29  30
ATOM     30  C24 UNL     1     -48.477  58.949   7.879  0.00  0.00    +0.139 A 
ATOM     31  C25 UNL     1     -47.740  58.207   6.936  0.00  0.00    +0.037 A 
ATOM     32  C26 UNL     1     -46.693  57.378   7.351  0.00  0.00    +0.006 A 
ATOM     33  C27 UNL     1     -46.357  57.277   8.712  0.00  0.00    +0.040 A 
ATOM     34  C29 UNL     1     -47.091  58.024   9.649  0.00  0.00    +0.006 A 
ATOM     35  C30 UNL     1     -48.140  58.851   9.232  0.00  0.00    +0.037 A 
BRANCH  33  36
ATOM     36  C28 UNL     1     -45.244  56.399   9.151  0.00  0.00    +0.208 A 
ATOM     37  N3  UNL     1     -44.831  56.241  10.429  0.00  0.00    -0.106 NA
ATOM     38  N4  UNL     1     -43.821  55.387  10.376  0.00  0.00    -0.021 NA
ATOM     39  N5  UNL     1     -43.614  55.025   9.122  0.00  0.00    -0.021 NA
ATOM     40  N6  UNL     1     -44.483  55.638   8.335  0.00  0.00    -0.106 NA
ENDBRANCH  33  36
ENDBRANCH  29  30
ENDBRANCH  28  29
ENDBRANCH  27  28
ENDBRANCH  26  27
ENDBRANCH  25  26
ENDBRANCH  24  25
ENDBRANCH   6  24
TORSDOF 11
ENDMDL
MODEL 5
REMARK VINA RESULT:      -8.4      2.068      3.771
REMARK  Name = ./data/4wxx_site2_bc02/pdb/l0c0.pdb
REMARK  11 active torsions:
REMARK  status: ('A' for Active; 'I' for Inactive)
REMARK    1  A    between atoms: O1_2  and  C2_3
REMARK    2  A    between atoms: C5_6  and  C6_7
REMARK    3  A    between atoms: N2_9  and  C7_10
REMARK    4  A    between atoms: C19_23  and  O3_24
REMARK    5  A    between atoms: O3_24  and  C20_25
REMARK    6  A    between atoms: C20_25  and  C21_26
REMARK    7  A    between atoms: C21_26  and  C22_27
REMARK    8  A    between atoms: C22_27  and  C23_28
REMARK    9  A    between atoms: C23_28  and  O4_29
REMARK   10  A    between atoms: O4_29  and  C24_30
REMARK   11  A    between atoms: C27_33  and  C28_34
REMARK                            x       y       z     vdW  Elec       q    Type
REMARK                         _______ _______ _______ _____ _____    ______ ____
ROOT
ATOM      1  C2  UNL     1     -52.374  63.029   7.621  0.00  0.00    +0.172 A 
ATOM      2  C3  UNL     1     -51.615  62.404   8.628  0.00  0.00    +0.040 A 
ATOM      3  C4  UNL     1     -50.940  61.208   8.373  0.00  0.00    +0.005 A 
ATOM      4  C5  UNL     1     -51.008  60.605   7.106  0.00  0.00    +0.019 A 
ATOM      5  C18 UNL     1     -51.789  61.223   6.111  0.00  0.00    +0.041 A 
ATOM      6  C19 UNL     1     -52.454  62.440   6.352  0.00  0.00    +0.172 A 
ENDROOT
BRANCH   4   7
ATOM      7  C6  UNL     1     -50.266  59.356   6.765  0.00  0.00    +0.086 C 
ATOM      8  N1  UNL     1     -50.847  58.400   6.112  0.00  0.00    -0.171 NA
ATOM      9  N2  UNL     1     -49.952  57.360   5.877  0.00  0.00    -0.222 N 
ATOM     10  C14 UNL     1     -48.799  57.646   6.385  0.00  0.00    +0.257 C 
ATOM     11  O2  UNL     1     -47.698  56.793   6.315  0.00  0.00    -0.270 OA
ATOM     12  C15 UNL     1     -48.811  59.002   7.036  0.00  0.00    +0.110 C 
ATOM     13  C16 UNL     1     -48.505  58.866   8.536  0.00  0.00    +0.015 C 
ATOM     14  C17 UNL     1     -47.826  59.933   6.305  0.00  0.00    +0.015 C 
BRANCH   9  15
ATOM     15  C7  UNL     1     -50.309  56.149   5.127  0.00  0.00    +0.108 C 
ATOM     16  C8  UNL     1     -50.306  54.936   6.083  0.00  0.00    +0.024 C 
ATOM     17  C9  UNL     1     -50.984  53.680   5.508  0.00  0.00    +0.002 C 
ATOM     18  C10 UNL     1     -52.485  53.629   5.839  0.00  0.00    +0.000 C 
ATOM     19  C11 UNL     1     -53.337  54.595   5.006  0.00  0.00    +0.000 C 
ATOM     20  C12 UNL     1     -52.916  56.066   5.146  0.00  0.00    +0.002 C 
ATOM     21  C13 UNL     1     -51.632  56.383   4.356  0.00  0.00    +0.024 C 
ENDBRANCH   9  15
ENDBRANCH   4   7
BRANCH   1  23
ATOM     22  C1  UNL     1     -54.450  64.325   8.148  0.00  0.00    +0.253 C 
ATOM     23  O1  UNL     1     -53.062  64.233   7.843  0.00  0.00    -0.468 OA
ENDBRANCH   1  23
BRANCH   6  24
ATOM     24  O3  UNL     1     -53.201  63.097   5.356  0.00  0.00    -0.472 OA
BRANCH  24  25
ATOM     25  C20 UNL     1     -54.092  62.461   4.437  0.00  0.00    +0.206 C 
BRANCH  25  26
ATOM     26  C21 UNL     1     -54.879  63.500   3.625  0.00  0.00    +0.051 C 
BRANCH  26  27
ATOM     27  C22 UNL     1     -54.127  64.835   3.572  0.00  0.00    +0.051 C 
BRANCH  27  28
ATOM     28  C23 UNL     1     -53.614  65.124   2.158  0.00  0.00    +0.206 C 
BRANCH  28  29
ATOM     29  O4  UNL     1     -52.336  64.519   1.957  0.00  0.00    -0.475 OA
BRANCH  29  30
ATOM     30  C24 UNL     1     -51.144  64.912   2.590  0.00  0.00    +0.139 A 
ATOM     31  C25 UNL     1     -50.450  66.087   2.246  0.00  0.00    +0.037 A 
ATOM     32  C26 UNL     1     -49.267  66.430   2.908  0.00  0.00    +0.006 A 
ATOM     33  C27 UNL     1     -48.756  65.610   3.930  0.00  0.00    +0.040 A 
ATOM     34  C29 UNL     1     -49.456  64.441   4.274  0.00  0.00    +0.006 A 
ATOM     35  C30 UNL     1     -50.638  64.098   3.609  0.00  0.00    +0.037 A 
BRANCH  33  36
ATOM     36  C28 UNL     1     -47.502  65.975   4.633  0.00  0.00    +0.208 A 
ATOM     37  N3  UNL     1     -47.060  65.417   5.782  0.00  0.00    -0.106 NA
ATOM     38  N4  UNL     1     -45.923  66.031   6.065  0.00  0.00    -0.021 NA
ATOM     39  N5  UNL     1     -45.663  66.931   5.132  0.00  0.00    -0.021 NA
ATOM     40  N6  UNL     1     -46.627  66.921   4.227  0.00  0.00    -0.106 NA
ENDBRANCH  33  36
ENDBRANCH  29  30
ENDBRANCH  28  29
ENDBRANCH  27  28
ENDBRANCH  26  27
ENDBRANCH  25  26
ENDBRANCH  24  25
ENDBRANCH   6  24
TORSDOF 11
ENDMDL
MODEL 6
REMARK VINA RESULT:      -8.2      4.019      6.534
REMARK  Name = ./data/4wxx_site2_bc02/pdb/l0c0.pdb
REMARK  11 active torsions:
REMARK  status: ('A' for Active; 'I' for Inactive)
REMARK    1  A    between atoms: O1_2  and  C2_3
REMARK    2  A    between atoms: C5_6  and  C6_7
REMARK    3  A    between atoms: N2_9  and  C7_10
REMARK    4  A    between atoms: C19_23  and  O3_24
REMARK    5  A    between atoms: O3_24  and  C20_25
REMARK    6  A    between atoms: C20_25  and  C21_26
REMARK    7  A    between atoms: C21_26  and  C22_27
REMARK    8  A    between atoms: C22_27  and  C23_28
REMARK    9  A    between atoms: C23_28  and  O4_29
REMARK   10  A    between atoms: O4_29  and  C24_30
REMARK   11  A    between atoms: C27_33  and  C28_34
REMARK                            x       y       z     vdW  Elec       q    Type
REMARK                         _______ _______ _______ _____ _____    ______ ____
ROOT
ATOM      1  C2  UNL     1     -48.639  61.633   6.369  0.00  0.00    +0.172 A 
ATOM      2  C3  UNL     1     -48.065  60.421   5.945  0.00  0.00    +0.040 A 
ATOM      3  C4  UNL     1     -48.871  59.337   5.589  0.00  0.00    +0.005 A 
ATOM      4  C5  UNL     1     -50.271  59.436   5.651  0.00  0.00    +0.019 A 
ATOM      5  C18 UNL     1     -50.837  60.644   6.101  0.00  0.00    +0.041 A 
ATOM      6  C19 UNL     1     -50.033  61.749   6.439  0.00  0.00    +0.172 A 
ENDROOT
BRANCH   4   7
ATOM      7  C6  UNL     1     -51.179  58.327   5.236  0.00  0.00    +0.086 C 
ATOM      8  N1  UNL     1     -50.698  57.220   4.765  0.00  0.00    -0.171 NA
ATOM      9  N2  UNL     1     -51.727  56.326   4.484  0.00  0.00    -0.222 N 
ATOM     10  C14 UNL     1     -52.868  56.861   4.768  0.00  0.00    +0.257 C 
ATOM     11  O2  UNL     1     -54.087  56.208   4.587  0.00  0.00    -0.270 OA
ATOM     12  C15 UNL     1     -52.697  58.251   5.318  0.00  0.00    +0.110 C 
ATOM     13  C16 UNL     1     -53.391  59.267   4.398  0.00  0.00    +0.015 C 
ATOM     14  C17 UNL     1     -53.217  58.299   6.766  0.00  0.00    +0.015 C 
BRANCH   9  15
ATOM     15  C7  UNL     1     -51.493  54.970   3.971  0.00  0.00    +0.108 C 
ATOM     16  C8  UNL     1     -50.381  55.015   2.899  0.00  0.00    +0.024 C 
ATOM     17  C9  UNL     1     -49.808  53.635   2.531  0.00  0.00    +0.002 C 
ATOM     18  C10 UNL     1     -48.608  53.251   3.412  0.00  0.00    +0.000 C 
ATOM     19  C11 UNL     1     -48.993  52.824   4.834  0.00  0.00    +0.000 C 
ATOM     20  C12 UNL     1     -49.771  53.897   5.611  0.00  0.00    +0.002 C 
ATOM     21  C13 UNL     1     -51.238  54.001   5.152  0.00  0.00    +0.024 C 
ENDBRANCH   9  15
ENDBRANCH   4   7
BRANCH   1  23
ATOM     22  C1  UNL     1     -47.817  63.970   6.008  0.00  0.00    +0.253 C 
ATOM     23  O1  UNL     1     -47.858  62.743   6.730  0.00  0.00    -0.468 OA
ENDBRANCH   1  23
BRANCH   6  24
ATOM     24  O3  UNL     1     -50.583  62.979   6.845  0.00  0.00    -0.472 OA
BRANCH  24  25
ATOM     25  C20 UNL     1     -50.835  63.367   8.197  0.00  0.00    +0.206 C 
BRANCH  25  26
ATOM     26  C21 UNL     1     -52.097  62.681   8.741  0.00  0.00    +0.051 C 
BRANCH  26  27
ATOM     27  C22 UNL     1     -51.759  61.311   9.339  0.00  0.00    +0.051 C 
BRANCH  27  28
ATOM     28  C23 UNL     1     -50.271  61.213   9.689  0.00  0.00    +0.206 C 
BRANCH  28  29
ATOM     29  O4  UNL     1     -50.025  60.072  10.512  0.00  0.00    -0.475 OA
BRANCH  29  30
ATOM     30  C24 UNL     1     -48.936  59.194  10.378  0.00  0.00    +0.139 A 
ATOM     31  C25 UNL     1     -48.507  58.348  11.418  0.00  0.00    +0.037 A 
ATOM     32  C26 UNL     1     -47.415  57.494  11.231  0.00  0.00    +0.006 A 
ATOM     33  C27 UNL     1     -46.734  57.464  10.001  0.00  0.00    +0.040 A 
ATOM     34  C29 UNL     1     -47.170  58.307   8.964  0.00  0.00    +0.006 A 
ATOM     35  C30 UNL     1     -48.261  59.162   9.154  0.00  0.00    +0.037 A 
BRANCH  33  36
ATOM     36  C28 UNL     1     -45.577  56.556   9.803  0.00  0.00    +0.208 A 
ATOM     37  N3  UNL     1     -45.191  56.032   8.618  0.00  0.00    -0.106 NA
ATOM     38  N4  UNL     1     -44.135  55.281   8.886  0.00  0.00    -0.021 NA
ATOM     39  N5  UNL     1     -43.870  55.337  10.180  0.00  0.00    -0.021 NA
ATOM     40  N6  UNL     1     -44.750  56.122  10.778  0.00  0.00    -0.106 NA
ENDBRANCH  33  36
ENDBRANCH  29  30
ENDBRANCH  28  29
ENDBRANCH  27  28
ENDBRANCH  26  27
ENDBRANCH  25  26
ENDBRANCH  24  25
ENDBRANCH   6  24
TORSDOF 11
ENDMDL
MODEL 7
REMARK VINA RESULT:      -7.8      3.879      8.884
REMARK  Name = ./data/4wxx_site2_bc02/pdb/l0c0.pdb
REMARK  11 active torsions:
REMARK  status: ('A' for Active; 'I' for Inactive)
REMARK    1  A    between atoms: O1_2  and  C2_3
REMARK    2  A    between atoms: C5_6  and  C6_7
REMARK    3  A    between atoms: N2_9  and  C7_10
REMARK    4  A    between atoms: C19_23  and  O3_24
REMARK    5  A    between atoms: O3_24  and  C20_25
REMARK    6  A    between atoms: C20_25  and  C21_26
REMARK    7  A    between atoms: C21_26  and  C22_27
REMARK    8  A    between atoms: C22_27  and  C23_28
REMARK    9  A    between atoms: C23_28  and  O4_29
REMARK   10  A    between atoms: O4_29  and  C24_30
REMARK   11  A    between atoms: C27_33  and  C28_34
REMARK                            x       y       z     vdW  Elec       q    Type
REMARK                         _______ _______ _______ _____ _____    ______ ____
ROOT
ATOM      1  C2  UNL     1     -54.388  55.921   5.608  0.00  0.00    +0.172 A 
ATOM      2  C3  UNL     1     -54.669  56.792   6.677  0.00  0.00    +0.040 A 
ATOM      3  C4  UNL     1     -54.188  58.104   6.673  0.00  0.00    +0.005 A 
ATOM      4  C5  UNL     1     -53.411  58.577   5.602  0.00  0.00    +0.019 A 
ATOM      5  C18 UNL     1     -53.112  57.693   4.549  0.00  0.00    +0.041 A 
ATOM      6  C19 UNL     1     -53.613  56.377   4.532  0.00  0.00    +0.172 A 
ENDROOT
BRANCH   4   7
ATOM      7  C6  UNL     1     -52.914  59.982   5.524  0.00  0.00    +0.086 C 
ATOM      8  N1  UNL     1     -53.396  60.805   4.648  0.00  0.00    -0.171 NA
ATOM      9  N2  UNL     1     -52.810  62.061   4.789  0.00  0.00    -0.222 N 
ATOM     10  C14 UNL     1     -51.949  62.041   5.752  0.00  0.00    +0.257 C 
ATOM     11  O2  UNL     1     -51.196  63.152   6.129  0.00  0.00    -0.270 OA
ATOM     12  C15 UNL     1     -51.884  60.684   6.398  0.00  0.00    +0.110 C 
ATOM     13  C16 UNL     1     -50.474  60.095   6.240  0.00  0.00    +0.015 C 
ATOM     14  C17 UNL     1     -52.328  60.793   7.868  0.00  0.00    +0.015 C 
BRANCH   9  15
ATOM     15  C7  UNL     1     -53.179  63.215   3.960  0.00  0.00    +0.108 C 
ATOM     16  C8  UNL     1     -51.929  63.726   3.209  0.00  0.00    +0.024 C 
ATOM     17  C9  UNL     1     -52.240  64.703   2.062  0.00  0.00    +0.002 C 
ATOM     18  C10 UNL     1     -52.449  63.977   0.723  0.00  0.00    +0.000 C 
ATOM     19  C11 UNL     1     -53.799  63.257   0.611  0.00  0.00    +0.000 C 
ATOM     20  C12 UNL     1     -54.031  62.207   1.710  0.00  0.00    +0.002 C 
ATOM     21  C13 UNL     1     -54.389  62.849   3.063  0.00  0.00    +0.024 C 
ENDBRANCH   9  15
ENDBRANCH   4   7
BRANCH   1  23
ATOM     22  C1  UNL     1     -54.239  53.506   6.247  0.00  0.00    +0.253 C 
ATOM     23  O1  UNL     1     -54.859  54.599   5.578  0.00  0.00    -0.468 OA
ENDBRANCH   1  23
BRANCH   6  24
ATOM     24  O3  UNL     1     -53.365  55.494   3.465  0.00  0.00    -0.472 OA
BRANCH  24  25
ATOM     25  C20 UNL     1     -52.225  55.536   2.604  0.00  0.00    +0.206 C 
BRANCH  25  26
ATOM     26  C21 UNL     1     -51.095  54.646   3.140  0.00  0.00    +0.051 C 
BRANCH  26  27
ATOM     27  C22 UNL     1     -49.893  55.491   3.574  0.00  0.00    +0.051 C 
BRANCH  27  28
ATOM     28  C23 UNL     1     -50.057  55.989   5.013  0.00  0.00    +0.206 C 
BRANCH  28  29
ATOM     29  O4  UNL     1     -49.094  57.003   5.304  0.00  0.00    -0.475 OA
BRANCH  29  30
ATOM     30  C24 UNL     1     -47.939  56.825   6.085  0.00  0.00    +0.139 A 
ATOM     31  C25 UNL     1     -46.970  55.844   5.799  0.00  0.00    +0.037 A 
ATOM     32  C26 UNL     1     -45.839  55.710   6.611  0.00  0.00    +0.006 A 
ATOM     33  C27 UNL     1     -45.651  56.553   7.720  0.00  0.00    +0.040 A 
ATOM     34  C29 UNL     1     -46.619  57.533   7.998  0.00  0.00    +0.006 A 
ATOM     35  C30 UNL     1     -47.750  57.665   7.186  0.00  0.00    +0.037 A 
BRANCH  33  36
ATOM     36  C28 UNL     1     -44.450  56.410   8.580  0.00  0.00    +0.208 A 
ATOM     37  N3  UNL     1     -44.409  55.755   9.762  0.00  0.00    -0.106 NA
ATOM     38  N4  UNL     1     -43.165  55.876  10.195  0.00  0.00    -0.021 NA
ATOM     39  N5  UNL     1     -42.458  56.572   9.322  0.00  0.00    -0.021 NA
ATOM     40  N6  UNL     1     -43.230  56.920   8.306  0.00  0.00    -0.106 NA
ENDBRANCH  33  36
ENDBRANCH  29  30
ENDBRANCH  28  29
ENDBRANCH  27  28
ENDBRANCH  26  27
ENDBRANCH  25  26
ENDBRANCH  24  25
ENDBRANCH   6  24
TORSDOF 11
ENDMDL
MODEL 8
REMARK VINA RESULT:      -7.8      2.582     10.561
REMARK  Name = ./data/4wxx_site2_bc02/pdb/l0c0.pdb
REMARK  11 active torsions:
REMARK  status: ('A' for Active; 'I' for Inactive)
REMARK    1  A    between atoms: O1_2  and  C2_3
REMARK    2  A    between atoms: C5_6  and  C6_7
REMARK    3  A    between atoms: N2_9  and  C7_10
REMARK    4  A    between atoms: C19_23  and  O3_24
REMARK    5  A    between atoms: O3_24  and  C20_25
REMARK    6  A    between atoms: C20_25  and  C21_26
REMARK    7  A    between atoms: C21_26  and  C22_27
REMARK    8  A    between atoms: C22_27  and  C23_28
REMARK    9  A    between atoms: C23_28  and  O4_29
REMARK   10  A    between atoms: O4_29  and  C24_30
REMARK   11  A    between atoms: C27_33  and  C28_34
REMARK                            x       y       z     vdW  Elec       q    Type
REMARK                         _______ _______ _______ _____ _____    ______ ____
ROOT
ATOM      1  C2  UNL     1     -49.273  60.017   9.761  0.00  0.00    +0.172 A 
ATOM      2  C3  UNL     1     -50.003  61.168  10.110  0.00  0.00    +0.040 A 
ATOM      3  C4  UNL     1     -50.572  61.977   9.123  0.00  0.00    +0.005 A 
ATOM      4  C5  UNL     1     -50.424  61.658   7.764  0.00  0.00    +0.019 A 
ATOM      5  C18 UNL     1     -49.671  60.519   7.421  0.00  0.00    +0.041 A 
ATOM      6  C19 UNL     1     -49.114  59.684   8.409  0.00  0.00    +0.172 A 
ENDROOT
BRANCH   4   7
ATOM      7  C6  UNL     1     -51.053  62.458   6.672  0.00  0.00    +0.086 C 
ATOM      8  N1  UNL     1     -50.367  62.810   5.631  0.00  0.00    -0.171 NA
ATOM      9  N2  UNL     1     -51.171  63.512   4.737  0.00  0.00    -0.222 N 
ATOM     10  C14 UNL     1     -52.369  63.617   5.207  0.00  0.00    +0.257 C 
ATOM     11  O2  UNL     1     -53.400  64.274   4.537  0.00  0.00    -0.270 OA
ATOM     12  C15 UNL     1     -52.493  62.934   6.542  0.00  0.00    +0.110 C 
ATOM     13  C16 UNL     1     -52.878  63.959   7.620  0.00  0.00    +0.015 C 
ATOM     14  C17 UNL     1     -53.496  61.771   6.434  0.00  0.00    +0.015 C 
BRANCH   9  15
ATOM     15  C7  UNL     1     -50.684  64.012   3.444  0.00  0.00    +0.108 C 
ATOM     16  C8  UNL     1     -51.471  65.284   3.059  0.00  0.00    +0.024 C 
ATOM     17  C9  UNL     1     -50.839  66.090   1.910  0.00  0.00    +0.002 C 
ATOM     18  C10 UNL     1     -49.850  67.150   2.422  0.00  0.00    +0.000 C 
ATOM     19  C11 UNL     1     -48.509  66.573   2.891  0.00  0.00    +0.000 C 
ATOM     20  C12 UNL     1     -48.643  65.534   4.014  0.00  0.00    +0.002 C 
ATOM     21  C13 UNL     1     -49.144  64.173   3.493  0.00  0.00    +0.024 C 
ENDBRANCH   9  15
ENDBRANCH   4   7
BRANCH   1  23
ATOM     22  C1  UNL     1     -49.272  58.883  11.993  0.00  0.00    +0.253 C 
ATOM     23  O1  UNL     1     -48.691  59.180  10.727  0.00  0.00    -0.468 OA
ENDBRANCH   1  23
BRANCH   6  24
ATOM     24  O3  UNL     1     -48.399  58.516   8.087  0.00  0.00    -0.472 OA
BRANCH  24  25
ATOM     25  C20 UNL     1     -47.103  58.479   7.486  0.00  0.00    +0.206 C 
BRANCH  25  26
ATOM     26  C21 UNL     1     -46.284  57.291   8.013  0.00  0.00    +0.051 C 
BRANCH  26  27
ATOM     27  C22 UNL     1     -45.317  56.777   6.942  0.00  0.00    +0.051 C 
BRANCH  27  28
ATOM     28  C23 UNL     1     -45.842  55.492   6.294  0.00  0.00    +0.206 C 
BRANCH  28  29
ATOM     29  O4  UNL     1     -46.964  55.777   5.458  0.00  0.00    -0.475 OA
BRANCH  29  30
ATOM     30  C24 UNL     1     -48.203  55.115   5.510  0.00  0.00    +0.139 A 
ATOM     31  C25 UNL     1     -49.382  55.739   5.960  0.00  0.00    +0.037 A 
ATOM     32  C26 UNL     1     -50.589  55.032   5.992  0.00  0.00    +0.006 A 
ATOM     33  C27 UNL     1     -50.644  53.692   5.572  0.00  0.00    +0.040 A 
ATOM     34  C29 UNL     1     -49.465  53.075   5.118  0.00  0.00    +0.006 A 
ATOM     35  C30 UNL     1     -48.259  53.783   5.089  0.00  0.00    +0.037 A 
BRANCH  33  36
ATOM     36  C28 UNL     1     -51.924  52.944   5.605  0.00  0.00    +0.208 A 
ATOM     37  N3  UNL     1     -52.968  53.144   4.768  0.00  0.00    -0.106 NA
ATOM     38  N4  UNL     1     -53.899  52.283   5.145  0.00  0.00    -0.021 NA
ATOM     39  N5  UNL     1     -53.457  51.572   6.168  0.00  0.00    -0.021 NA
ATOM     40  N6  UNL     1     -52.231  51.960   6.479  0.00  0.00    -0.106 NA
ENDBRANCH  33  36
ENDBRANCH  29  30
ENDBRANCH  28  29
ENDBRANCH  27  28
ENDBRANCH  26  27
ENDBRANCH  25  26
ENDBRANCH  24  25
ENDBRANCH   6  24
TORSDOF 11
ENDMDL
MODEL 9
REMARK VINA RESULT:      -7.7      2.991      9.914
REMARK  Name = ./data/4wxx_site2_bc02/pdb/l0c0.pdb
REMARK  11 active torsions:
REMARK  status: ('A' for Active; 'I' for Inactive)
REMARK    1  A    between atoms: O1_2  and  C2_3
REMARK    2  A    between atoms: C5_6  and  C6_7
REMARK    3  A    between atoms: N2_9  and  C7_10
REMARK    4  A    between atoms: C19_23  and  O3_24
REMARK    5  A    between atoms: O3_24  and  C20_25
REMARK    6  A    between atoms: C20_25  and  C21_26
REMARK    7  A    between atoms: C21_26  and  C22_27
REMARK    8  A    between atoms: C22_27  and  C23_28
REMARK    9  A    between atoms: C23_28  and  O4_29
REMARK   10  A    between atoms: O4_29  and  C24_30
REMARK   11  A    between atoms: C27_33  and  C28_34
REMARK                            x       y       z     vdW  Elec       q    Type
REMARK                         _______ _______ _______ _____ _____    ______ ____
ROOT
ATOM      1  C2  UNL     1     -48.951  60.668   6.842  0.00  0.00    +0.172 A 
ATOM      2  C3  UNL     1     -48.509  61.996   6.694  0.00  0.00    +0.040 A 
ATOM      3  C4  UNL     1     -49.369  62.983   6.206  0.00  0.00    +0.005 A 
ATOM      4  C5  UNL     1     -50.691  62.667   5.850  0.00  0.00    +0.019 A 
ATOM      5  C18 UNL     1     -51.118  61.331   5.976  0.00  0.00    +0.041 A 
ATOM      6  C19 UNL     1     -50.266  60.335   6.490  0.00  0.00    +0.172 A 
ENDROOT
BRANCH   4   7
ATOM      7  C6  UNL     1     -51.666  63.691   5.372  0.00  0.00    +0.086 C 
ATOM      8  N1  UNL     1     -51.752  63.983   4.113  0.00  0.00    -0.171 NA
ATOM      9  N2  UNL     1     -52.750  64.931   3.903  0.00  0.00    -0.222 N 
ATOM     10  C14 UNL     1     -53.300  65.251   5.028  0.00  0.00    +0.257 C 
ATOM     11  O2  UNL     1     -54.331  66.183   5.139  0.00  0.00    -0.270 OA
ATOM     12  C15 UNL     1     -52.691  64.483   6.170  0.00  0.00    +0.110 C 
ATOM     13  C16 UNL     1     -52.042  65.456   7.167  0.00  0.00    +0.015 C 
ATOM     14  C17 UNL     1     -53.762  63.587   6.817  0.00  0.00    +0.015 C 
BRANCH   9  15
ATOM     15  C7  UNL     1     -53.109  65.436   2.571  0.00  0.00    +0.108 C 
ATOM     16  C8  UNL     1     -51.831  65.561   1.712  0.00  0.00    +0.024 C 
ATOM     17  C9  UNL     1     -52.102  65.752   0.209  0.00  0.00    +0.002 C 
ATOM     18  C10 UNL     1     -52.182  64.412  -0.540  0.00  0.00    +0.000 C 
ATOM     19  C11 UNL     1     -53.487  63.644  -0.299  0.00  0.00    +0.000 C 
ATOM     20  C12 UNL     1     -53.752  63.325   1.180  0.00  0.00    +0.002 C 
ATOM     21  C13 UNL     1     -54.233  64.560   1.966  0.00  0.00    +0.024 C 
ENDBRANCH   9  15
ENDBRANCH   4   7
BRANCH   1  23
ATOM     22  C1  UNL     1     -48.112  59.190   8.680  0.00  0.00    +0.253 C 
ATOM     23  O1  UNL     1     -48.114  59.653   7.333  0.00  0.00    -0.468 OA
ENDBRANCH   1  23
BRANCH   6  24
ATOM     24  O3  UNL     1     -50.689  59.005   6.667  0.00  0.00    -0.472 OA
BRANCH  24  25
ATOM     25  C20 UNL     1     -51.850  58.420   6.073  0.00  0.00    +0.206 C 
BRANCH  25  26
ATOM     26  C21 UNL     1     -53.132  59.072   6.609  0.00  0.00    +0.051 C 
BRANCH  26  27
ATOM     27  C22 UNL     1     -54.310  58.093   6.547  0.00  0.00    +0.051 C 
BRANCH  27  28
ATOM     28  C23 UNL     1     -54.902  58.030   5.135  0.00  0.00    +0.206 C 
BRANCH  28  29
ATOM     29  O4  UNL     1     -54.843  56.696   4.628  0.00  0.00    -0.475 OA
BRANCH  29  30
ATOM     30  C24 UNL     1     -53.724  55.850   4.701  0.00  0.00    +0.139 A 
ATOM     31  C25 UNL     1     -53.609  54.817   5.651  0.00  0.00    +0.037 A 
ATOM     32  C26 UNL     1     -52.471  54.005   5.679  0.00  0.00    +0.006 A 
ATOM     33  C27 UNL     1     -51.428  54.203   4.758  0.00  0.00    +0.040 A 
ATOM     34  C29 UNL     1     -51.549  55.232   3.808  0.00  0.00    +0.006 A 
ATOM     35  C30 UNL     1     -52.687  56.045   3.783  0.00  0.00    +0.037 A 
BRANCH  33  36
ATOM     36  C28 UNL     1     -50.222  53.339   4.788  0.00  0.00    +0.208 A 
ATOM     37  N3  UNL     1     -49.571  52.870   3.700  0.00  0.00    -0.106 NA
ATOM     38  N4  UNL     1     -48.569  52.143   4.168  0.00  0.00    -0.021 NA
ATOM     39  N5  UNL     1     -48.591  52.160   5.490  0.00  0.00    -0.021 NA
ATOM     40  N6  UNL     1     -49.608  52.895   5.906  0.00  0.00    -0.106 NA
ENDBRANCH  33  36
ENDBRANCH  29  30
ENDBRANCH  28  29
ENDBRANCH  27  28
ENDBRANCH  26  27
ENDBRANCH  25  26
ENDBRANCH  24  25
ENDBRANCH   6  24
TORSDOF 11
ENDMDL
