MODEL 1
REMARK VINA RESULT:      -9.2      0.000      0.000
REMARK  Name = ./data/4wxx_site2_bc02/pdb/l0c2.pdb
REMARK  11 active torsions:
REMARK  status: ('A' for Active; 'I' for Inactive)
REMARK    1  A    between atoms: O1_2  and  C2_3
REMARK    2  A    between atoms: C5_6  and  C6_7
REMARK    3  A    between atoms: N2_9  and  C7_10
REMARK    4  A    between atoms: C19_23  and  O3_24
REMARK    5  A    between atoms: O3_24  and  C20_25
REMARK    6  A    between atoms: C20_25  and  C21_26
REMARK    7  A    between atoms: C21_26  and  C22_27
REMARK    8  A    between atoms: C22_27  and  C23_28
REMARK    9  A    between atoms: C23_28  and  O4_29
REMARK   10  A    between atoms: O4_29  and  C24_30
REMARK   11  A    between atoms: C27_33  and  C28_34
REMARK                            x       y       z     vdW  Elec       q    Type
REMARK                         _______ _______ _______ _____ _____    ______ ____
ROOT
ATOM      1  C2  UNL     1     -53.064  62.132   7.832  0.00  0.00    +0.172 A 
ATOM      2  C3  UNL     1     -51.897  62.114   8.614  0.00  0.00    +0.040 A 
ATOM      3  C4  UNL     1     -50.901  61.164   8.380  0.00  0.00    +0.005 A 
ATOM      4  C5  UNL     1     -51.046  60.203   7.366  0.00  0.00    +0.019 A 
ATOM      5  C18 UNL     1     -52.222  60.226   6.588  0.00  0.00    +0.041 A 
ATOM      6  C19 UNL     1     -53.224  61.189   6.808  0.00  0.00    +0.172 A 
ENDROOT
BRANCH   4   7
ATOM      7  C6  UNL     1     -50.002  59.172   7.087  0.00  0.00    +0.086 C 
ATOM      8  N1  UNL     1     -50.301  58.066   6.481  0.00  0.00    -0.171 NA
ATOM      9  N2  UNL     1     -49.158  57.288   6.309  0.00  0.00    -0.222 N 
ATOM     10  C14 UNL     1     -48.127  57.905   6.790  0.00  0.00    +0.257 C 
ATOM     11  O2  UNL     1     -46.833  57.390   6.737  0.00  0.00    -0.270 OA
ATOM     12  C15 UNL     1     -48.513  59.222   7.397  0.00  0.00    +0.110 C 
ATOM     13  C16 UNL     1     -47.792  60.365   6.664  0.00  0.00    +0.015 C 
ATOM     14  C17 UNL     1     -48.213  59.193   8.906  0.00  0.00    +0.015 C 
BRANCH   9  15
ATOM     15  C7  UNL     1     -49.182  55.985   5.629  0.00  0.00    +0.108 C 
ATOM     16  C8  UNL     1     -50.480  55.230   5.993  0.00  0.00    +0.024 C 
ATOM     17  C9  UNL     1     -50.420  53.724   5.711  0.00  0.00    +0.002 C 
ATOM     18  C10 UNL     1     -50.134  53.381   4.240  0.00  0.00    +0.000 C 
ATOM     19  C11 UNL     1     -48.657  53.590   3.871  0.00  0.00    +0.000 C 
ATOM     20  C12 UNL     1     -48.318  55.011   3.381  0.00  0.00    +0.002 C 
ATOM     21  C13 UNL     1     -49.034  56.169   4.100  0.00  0.00    +0.024 C 
ENDBRANCH   9  15
ENDBRANCH   4   7
BRANCH   1  23
ATOM     22  C1  UNL     1     -54.372  63.694   9.288  0.00  0.00    +0.253 C 
ATOM     23  O1  UNL     1     -54.084  63.075   8.038  0.00  0.00    -0.468 OA
ENDBRANCH   1  23
BRANCH   6  24
ATOM     24  O3  UNL     1     -54.397  61.248   6.034  0.00  0.00    -0.472 OA
BRANCH  24  25
ATOM     25  C20 UNL     1     -54.674  60.461   4.876  0.00  0.00    +0.206 C 
BRANCH  25  26
ATOM     26  C21 UNL     1     -54.493  61.294   3.600  0.00  0.00    +0.051 C 
BRANCH  26  27
ATOM     27  C22 UNL     1     -54.734  62.793   3.838  0.00  0.00    +0.051 C 
BRANCH  27  28
ATOM     28  C23 UNL     1     -53.494  63.643   3.534  0.00  0.00    +0.206 C 
BRANCH  28  29
ATOM     29  O4  UNL     1     -52.319  63.003   4.032  0.00  0.00    -0.475 OA
BRANCH  29  30
ATOM     30  C24 UNL     1     -51.105  63.644   4.327  0.00  0.00    +0.139 A 
ATOM     31  C25 UNL     1     -50.262  63.236   5.378  0.00  0.00    +0.037 A 
ATOM     32  C26 UNL     1     -49.061  63.909   5.623  0.00  0.00    +0.006 A 
ATOM     33  C27 UNL     1     -48.676  65.000   4.824  0.00  0.00    +0.040 A 
ATOM     34  C29 UNL     1     -49.522  65.403   3.776  0.00  0.00    +0.006 A 
ATOM     35  C30 UNL     1     -50.722  64.729   3.533  0.00  0.00    +0.037 A 
BRANCH  33  36
ATOM     36  C28 UNL     1     -47.397  65.709   5.079  0.00  0.00    +0.208 A 
ATOM     37  N3  UNL     1     -46.887  66.698   4.314  0.00  0.00    -0.106 NA
ATOM     38  N4  UNL     1     -45.746  67.044   4.886  0.00  0.00    -0.021 NA
ATOM     39  N5  UNL     1     -45.551  66.304   5.963  0.00  0.00    -0.021 NA
ATOM     40  N6  UNL     1     -46.560  65.463   6.111  0.00  0.00    -0.106 NA
ENDBRANCH  33  36
ENDBRANCH  29  30
ENDBRANCH  28  29
ENDBRANCH  27  28
ENDBRANCH  26  27
ENDBRANCH  25  26
ENDBRANCH  24  25
ENDBRANCH   6  24
TORSDOF 11
ENDMDL
MODEL 2
REMARK VINA RESULT:      -8.5      2.352      3.942
REMARK  Name = ./data/4wxx_site2_bc02/pdb/l0c2.pdb
REMARK  11 active torsions:
REMARK  status: ('A' for Active; 'I' for Inactive)
REMARK    1  A    between atoms: O1_2  and  C2_3
REMARK    2  A    between atoms: C5_6  and  C6_7
REMARK    3  A    between atoms: N2_9  and  C7_10
REMARK    4  A    between atoms: C19_23  and  O3_24
REMARK    5  A    between atoms: O3_24  and  C20_25
REMARK    6  A    between atoms: C20_25  and  C21_26
REMARK    7  A    between atoms: C21_26  and  C22_27
REMARK    8  A    between atoms: C22_27  and  C23_28
REMARK    9  A    between atoms: C23_28  and  O4_29
REMARK   10  A    between atoms: O4_29  and  C24_30
REMARK   11  A    between atoms: C27_33  and  C28_34
REMARK                            x       y       z     vdW  Elec       q    Type
REMARK                         _______ _______ _______ _____ _____    ______ ____
ROOT
ATOM      1  C2  UNL     1     -49.132  59.848   6.633  0.00  0.00    +0.172 A 
ATOM      2  C3  UNL     1     -48.068  58.937   6.729  0.00  0.00    +0.040 A 
ATOM      3  C4  UNL     1     -48.242  57.601   6.363  0.00  0.00    +0.005 A 
ATOM      4  C5  UNL     1     -49.486  57.137   5.903  0.00  0.00    +0.019 A 
ATOM      5  C18 UNL     1     -50.550  58.056   5.814  0.00  0.00    +0.041 A 
ATOM      6  C19 UNL     1     -50.378  59.408   6.166  0.00  0.00    +0.172 A 
ENDROOT
BRANCH   4   7
ATOM      7  C6  UNL     1     -49.710  55.715   5.504  0.00  0.00    +0.086 C 
ATOM      8  N1  UNL     1     -50.835  55.121   5.751  0.00  0.00    -0.171 NA
ATOM      9  N2  UNL     1     -50.811  53.819   5.256  0.00  0.00    -0.222 N 
ATOM     10  C14 UNL     1     -49.677  53.587   4.677  0.00  0.00    +0.257 C 
ATOM     11  O2  UNL     1     -49.366  52.379   4.056  0.00  0.00    -0.270 OA
ATOM     12  C15 UNL     1     -48.765  54.776   4.765  0.00  0.00    +0.110 C 
ATOM     13  C16 UNL     1     -48.419  55.274   3.353  0.00  0.00    +0.015 C 
ATOM     14  C17 UNL     1     -47.523  54.403   5.593  0.00  0.00    +0.015 C 
BRANCH   9  15
ATOM     15  C7  UNL     1     -51.959  52.908   5.367  0.00  0.00    +0.108 C 
ATOM     16  C8  UNL     1     -52.717  53.183   6.685  0.00  0.00    +0.024 C 
ATOM     17  C9  UNL     1     -53.643  52.039   7.116  0.00  0.00    +0.002 C 
ATOM     18  C10 UNL     1     -54.721  51.690   6.078  0.00  0.00    +0.000 C 
ATOM     19  C11 UNL     1     -54.151  50.890   4.895  0.00  0.00    +0.000 C 
ATOM     20  C12 UNL     1     -53.622  51.756   3.737  0.00  0.00    +0.002 C 
ATOM     21  C13 UNL     1     -52.883  53.048   4.134  0.00  0.00    +0.024 C 
ENDBRANCH   9  15
ENDBRANCH   4   7
BRANCH   1  23
ATOM     22  C1  UNL     1     -47.836  61.989   6.721  0.00  0.00    +0.253 C 
ATOM     23  O1  UNL     1     -48.991  61.199   6.989  0.00  0.00    -0.468 OA
ENDBRANCH   1  23
BRANCH   6  24
ATOM     24  O3  UNL     1     -51.416  60.352   6.068  0.00  0.00    -0.472 OA
BRANCH  24  25
ATOM     25  C20 UNL     1     -52.694  60.256   6.698  0.00  0.00    +0.206 C 
BRANCH  25  26
ATOM     26  C21 UNL     1     -53.818  60.514   5.685  0.00  0.00    +0.051 C 
BRANCH  26  27
ATOM     27  C22 UNL     1     -53.324  61.271   4.442  0.00  0.00    +0.051 C 
BRANCH  27  28
ATOM     28  C23 UNL     1     -53.606  62.777   4.521  0.00  0.00    +0.206 C 
BRANCH  28  29
ATOM     29  O4  UNL     1     -52.870  63.365   5.593  0.00  0.00    -0.475 OA
BRANCH  29  30
ATOM     30  C24 UNL     1     -51.578  63.908   5.493  0.00  0.00    +0.139 A 
ATOM     31  C25 UNL     1     -50.862  63.956   4.282  0.00  0.00    +0.037 A 
ATOM     32  C26 UNL     1     -49.580  64.513   4.241  0.00  0.00    +0.006 A 
ATOM     33  C27 UNL     1     -48.989  65.036   5.404  0.00  0.00    +0.040 A 
ATOM     34  C29 UNL     1     -49.709  64.985   6.610  0.00  0.00    +0.006 A 
ATOM     35  C30 UNL     1     -50.989  64.427   6.650  0.00  0.00    +0.037 A 
BRANCH  33  36
ATOM     36  C28 UNL     1     -47.632  65.635   5.358  0.00  0.00    +0.208 A 
ATOM     37  N3  UNL     1     -47.227  66.583   4.486  0.00  0.00    -0.106 NA
ATOM     38  N4  UNL     1     -45.962  66.829   4.783  0.00  0.00    -0.021 NA
ATOM     39  N5  UNL     1     -45.591  66.069   5.798  0.00  0.00    -0.021 NA
ATOM     40  N6  UNL     1     -46.608  65.313   6.178  0.00  0.00    -0.106 NA
ENDBRANCH  33  36
ENDBRANCH  29  30
ENDBRANCH  28  29
ENDBRANCH  27  28
ENDBRANCH  26  27
ENDBRANCH  25  26
ENDBRANCH  24  25
ENDBRANCH   6  24
TORSDOF 11
ENDMDL
MODEL 3
REMARK VINA RESULT:      -8.1      3.046      9.711
REMARK  Name = ./data/4wxx_site2_bc02/pdb/l0c2.pdb
REMARK  11 active torsions:
REMARK  status: ('A' for Active; 'I' for Inactive)
REMARK    1  A    between atoms: O1_2  and  C2_3
REMARK    2  A    between atoms: C5_6  and  C6_7
REMARK    3  A    between atoms: N2_9  and  C7_10
REMARK    4  A    between atoms: C19_23  and  O3_24
REMARK    5  A    between atoms: O3_24  and  C20_25
REMARK    6  A    between atoms: C20_25  and  C21_26
REMARK    7  A    between atoms: C21_26  and  C22_27
REMARK    8  A    between atoms: C22_27  and  C23_28
REMARK    9  A    between atoms: C23_28  and  O4_29
REMARK   10  A    between atoms: O4_29  and  C24_30
REMARK   11  A    between atoms: C27_33  and  C28_34
REMARK                            x       y       z     vdW  Elec       q    Type
REMARK                         _______ _______ _______ _____ _____    ______ ____
ROOT
ATOM      1  C2  UNL     1     -51.648  57.953   5.728  0.00  0.00    +0.172 A 
ATOM      2  C3  UNL     1     -52.607  58.938   5.439  0.00  0.00    +0.040 A 
ATOM      3  C4  UNL     1     -52.331  60.287   5.669  0.00  0.00    +0.005 A 
ATOM      4  C5  UNL     1     -51.094  60.688   6.202  0.00  0.00    +0.019 A 
ATOM      5  C18 UNL     1     -50.139  59.693   6.494  0.00  0.00    +0.041 A 
ATOM      6  C19 UNL     1     -50.404  58.332   6.250  0.00  0.00    +0.172 A 
ENDROOT
BRANCH   4   7
ATOM      7  C6  UNL     1     -50.763  62.121   6.462  0.00  0.00    +0.086 C 
ATOM      8  N1  UNL     1     -49.729  62.677   5.916  0.00  0.00    -0.171 NA
ATOM      9  N2  UNL     1     -49.653  64.019   6.283  0.00  0.00    -0.222 N 
ATOM     10  C14 UNL     1     -50.649  64.324   7.050  0.00  0.00    +0.257 C 
ATOM     11  O2  UNL     1     -50.864  65.605   7.556  0.00  0.00    -0.270 OA
ATOM     12  C15 UNL     1     -51.522  63.131   7.312  0.00  0.00    +0.110 C 
ATOM     13  C16 UNL     1     -52.943  63.399   6.789  0.00  0.00    +0.015 C 
ATOM     14  C17 UNL     1     -51.488  62.796   8.814  0.00  0.00    +0.015 C 
BRANCH   9  15
ATOM     15  C7  UNL     1     -48.594  64.915   5.797  0.00  0.00    +0.108 C 
ATOM     16  C8  UNL     1     -47.218  64.412   6.288  0.00  0.00    +0.024 C 
ATOM     17  C9  UNL     1     -46.112  65.472   6.221  0.00  0.00    +0.002 C 
ATOM     18  C10 UNL     1     -45.875  66.032   4.810  0.00  0.00    +0.000 C 
ATOM     19  C11 UNL     1     -46.966  67.029   4.389  0.00  0.00    +0.000 C 
ATOM     20  C12 UNL     1     -48.183  66.387   3.696  0.00  0.00    +0.002 C 
ATOM     21  C13 UNL     1     -48.648  65.029   4.255  0.00  0.00    +0.024 C 
ENDBRANCH   9  15
ENDBRANCH   4   7
BRANCH   1  23
ATOM     22  C1  UNL     1     -53.186  55.999   5.438  0.00  0.00    +0.253 C 
ATOM     23  O1  UNL     1     -51.891  56.588   5.507  0.00  0.00    -0.468 OA
ENDBRANCH   1  23
BRANCH   6  24
ATOM     24  O3  UNL     1     -49.463  57.321   6.513  0.00  0.00    -0.472 OA
BRANCH  24  25
ATOM     25  C20 UNL     1     -48.338  57.433   7.385  0.00  0.00    +0.206 C 
BRANCH  25  26
ATOM     26  C21 UNL     1     -47.073  57.795   6.594  0.00  0.00    +0.051 C 
BRANCH  26  27
ATOM     27  C22 UNL     1     -45.937  56.783   6.810  0.00  0.00    +0.051 C 
BRANCH  27  28
ATOM     28  C23 UNL     1     -46.304  55.375   6.325  0.00  0.00    +0.206 C 
BRANCH  28  29
ATOM     29  O4  UNL     1     -47.053  55.447   5.111  0.00  0.00    -0.475 OA
BRANCH  29  30
ATOM     30  C24 UNL     1     -48.253  54.765   4.852  0.00  0.00    +0.139 A 
ATOM     31  C25 UNL     1     -48.741  53.737   5.682  0.00  0.00    +0.037 A 
ATOM     32  C26 UNL     1     -49.945  53.095   5.377  0.00  0.00    +0.006 A 
ATOM     33  C27 UNL     1     -50.688  53.466   4.242  0.00  0.00    +0.040 A 
ATOM     34  C29 UNL     1     -50.195  54.492   3.418  0.00  0.00    +0.006 A 
ATOM     35  C30 UNL     1     -48.991  55.132   3.724  0.00  0.00    +0.037 A 
BRANCH  33  36
ATOM     36  C28 UNL     1     -51.969  52.790   3.924  0.00  0.00    +0.208 A 
ATOM     37  N3  UNL     1     -53.006  53.352   3.264  0.00  0.00    -0.106 NA
ATOM     38  N4  UNL     1     -53.939  52.418   3.198  0.00  0.00    -0.021 NA
ATOM     39  N5  UNL     1     -53.506  51.318   3.788  0.00  0.00    -0.021 NA
ATOM     40  N6  UNL     1     -52.284  51.517   4.252  0.00  0.00    -0.106 NA
ENDBRANCH  33  36
ENDBRANCH  29  30
ENDBRANCH  28  29
ENDBRANCH  27  28
ENDBRANCH  26  27
ENDBRANCH  25  26
ENDBRANCH  24  25
ENDBRANCH   6  24
TORSDOF 11
ENDMDL
MODEL 4
REMARK VINA RESULT:      -7.8      2.271      4.287
REMARK  Name = ./data/4wxx_site2_bc02/pdb/l0c2.pdb
REMARK  11 active torsions:
REMARK  status: ('A' for Active; 'I' for Inactive)
REMARK    1  A    between atoms: O1_2  and  C2_3
REMARK    2  A    between atoms: C5_6  and  C6_7
REMARK    3  A    between atoms: N2_9  and  C7_10
REMARK    4  A    between atoms: C19_23  and  O3_24
REMARK    5  A    between atoms: O3_24  and  C20_25
REMARK    6  A    between atoms: C20_25  and  C21_26
REMARK    7  A    between atoms: C21_26  and  C22_27
REMARK    8  A    between atoms: C22_27  and  C23_28
REMARK    9  A    between atoms: C23_28  and  O4_29
REMARK   10  A    between atoms: O4_29  and  C24_30
REMARK   11  A    between atoms: C27_33  and  C28_34
REMARK                            x       y       z     vdW  Elec       q    Type
REMARK                         _______ _______ _______ _____ _____    ______ ____
ROOT
ATOM      1  C2  UNL     1     -52.631  59.504   5.785  0.00  0.00    +0.172 A 
ATOM      2  C3  UNL     1     -52.690  58.285   5.088  0.00  0.00    +0.040 A 
ATOM      3  C4  UNL     1     -51.619  57.390   5.130  0.00  0.00    +0.005 A 
ATOM      4  C5  UNL     1     -50.458  57.692   5.861  0.00  0.00    +0.019 A 
ATOM      5  C18 UNL     1     -50.404  58.918   6.554  0.00  0.00    +0.041 A 
ATOM      6  C19 UNL     1     -51.486  59.819   6.529  0.00  0.00    +0.172 A 
ENDROOT
BRANCH   4   7
ATOM      7  C6  UNL     1     -49.292  56.760   5.929  0.00  0.00    +0.086 C 
ATOM      8  N1  UNL     1     -48.249  57.046   6.641  0.00  0.00    -0.171 NA
ATOM      9  N2  UNL     1     -47.318  56.011   6.570  0.00  0.00    -0.222 N 
ATOM     10  C14 UNL     1     -47.775  55.058   5.825  0.00  0.00    +0.257 C 
ATOM     11  O2  UNL     1     -47.083  53.871   5.588  0.00  0.00    -0.270 OA
ATOM     12  C15 UNL     1     -49.126  55.399   5.266  0.00  0.00    +0.110 C 
ATOM     13  C16 UNL     1     -50.165  54.373   5.748  0.00  0.00    +0.015 C 
ATOM     14  C17 UNL     1     -49.034  55.487   3.733  0.00  0.00    +0.015 C 
BRANCH   9  15
ATOM     15  C7  UNL     1     -46.041  56.043   7.297  0.00  0.00    +0.108 C 
ATOM     16  C8  UNL     1     -44.899  56.427   6.329  0.00  0.00    +0.024 C 
ATOM     17  C9  UNL     1     -43.501  56.072   6.851  0.00  0.00    +0.002 C 
ATOM     18  C10 UNL     1     -43.154  56.735   8.193  0.00  0.00    +0.000 C 
ATOM     19  C11 UNL     1     -43.857  56.052   9.378  0.00  0.00    +0.000 C 
ATOM     20  C12 UNL     1     -45.251  56.619   9.704  0.00  0.00    +0.002 C 
ATOM     21  C13 UNL     1     -46.126  57.013   8.499  0.00  0.00    +0.024 C 
ENDBRANCH   9  15
ENDBRANCH   4   7
BRANCH   1  23
ATOM     22  C1  UNL     1     -54.262  60.976   4.584  0.00  0.00    +0.253 C 
ATOM     23  O1  UNL     1     -53.690  60.425   5.767  0.00  0.00    -0.468 OA
ENDBRANCH   1  23
BRANCH   6  24
ATOM     24  O3  UNL     1     -51.468  61.039   7.227  0.00  0.00    -0.472 OA
BRANCH  24  25
ATOM     25  C20 UNL     1     -51.535  61.191   8.645  0.00  0.00    +0.206 C 
BRANCH  25  26
ATOM     26  C21 UNL     1     -52.514  62.312   9.024  0.00  0.00    +0.051 C 
BRANCH  26  27
ATOM     27  C22 UNL     1     -53.686  62.425   8.036  0.00  0.00    +0.051 C 
BRANCH  27  28
ATOM     28  C23 UNL     1     -53.697  63.766   7.291  0.00  0.00    +0.206 C 
BRANCH  28  29
ATOM     29  O4  UNL     1     -52.954  63.666   6.077  0.00  0.00    -0.475 OA
BRANCH  29  30
ATOM     30  C24 UNL     1     -51.637  64.117   5.888  0.00  0.00    +0.139 A 
ATOM     31  C25 UNL     1     -50.996  64.099   4.634  0.00  0.00    +0.037 A 
ATOM     32  C26 UNL     1     -49.685  64.565   4.504  0.00  0.00    +0.006 A 
ATOM     33  C27 UNL     1     -48.987  65.060   5.620  0.00  0.00    +0.040 A 
ATOM     34  C29 UNL     1     -49.631  65.075   6.869  0.00  0.00    +0.006 A 
ATOM     35  C30 UNL     1     -50.942  64.608   6.997  0.00  0.00    +0.037 A 
BRANCH  33  36
ATOM     36  C28 UNL     1     -47.597  65.562   5.480  0.00  0.00    +0.208 A 
ATOM     37  N3  UNL     1     -46.551  65.187   6.247  0.00  0.00    -0.106 NA
ATOM     38  N4  UNL     1     -45.511  65.868   5.796  0.00  0.00    -0.021 NA
ATOM     39  N5  UNL     1     -45.889  66.634   4.788  0.00  0.00    -0.021 NA
ATOM     40  N6  UNL     1     -47.182  66.468   4.567  0.00  0.00    -0.106 NA
ENDBRANCH  33  36
ENDBRANCH  29  30
ENDBRANCH  28  29
ENDBRANCH  27  28
ENDBRANCH  26  27
ENDBRANCH  25  26
ENDBRANCH  24  25
ENDBRANCH   6  24
TORSDOF 11
ENDMDL
MODEL 5
REMARK VINA RESULT:      -7.8      2.409      4.670
REMARK  Name = ./data/4wxx_site2_bc02/pdb/l0c2.pdb
REMARK  11 active torsions:
REMARK  status: ('A' for Active; 'I' for Inactive)
REMARK    1  A    between atoms: O1_2  and  C2_3
REMARK    2  A    between atoms: C5_6  and  C6_7
REMARK    3  A    between atoms: N2_9  and  C7_10
REMARK    4  A    between atoms: C19_23  and  O3_24
REMARK    5  A    between atoms: O3_24  and  C20_25
REMARK    6  A    between atoms: C20_25  and  C21_26
REMARK    7  A    between atoms: C21_26  and  C22_27
REMARK    8  A    between atoms: C22_27  and  C23_28
REMARK    9  A    between atoms: C23_28  and  O4_29
REMARK   10  A    between atoms: O4_29  and  C24_30
REMARK   11  A    between atoms: C27_33  and  C28_34
REMARK                            x       y       z     vdW  Elec       q    Type
REMARK                         _______ _______ _______ _____ _____    ______ ____
ROOT
ATOM      1  C2  UNL     1     -53.486  59.597   5.599  0.00  0.00    +0.172 A 
ATOM      2  C3  UNL     1     -53.492  58.407   4.852  0.00  0.00    +0.040 A 
ATOM      3  C4  UNL     1     -52.391  57.549   4.874  0.00  0.00    +0.005 A 
ATOM      4  C5  UNL     1     -51.250  57.862   5.633  0.00  0.00    +0.019 A 
ATOM      5  C18 UNL     1     -51.251  59.059   6.376  0.00  0.00    +0.041 A 
ATOM      6  C19 UNL     1     -52.364  59.921   6.372  0.00  0.00    +0.172 A 
ENDROOT
BRANCH   4   7
ATOM      7  C6  UNL     1     -50.053  56.969   5.681  0.00  0.00    +0.086 C 
ATOM      8  N1  UNL     1     -49.061  57.224   6.474  0.00  0.00    -0.171 NA
ATOM      9  N2  UNL     1     -48.087  56.235   6.360  0.00  0.00    -0.222 N 
ATOM     10  C14 UNL     1     -48.465  55.340   5.506  0.00  0.00    +0.257 C 
ATOM     11  O2  UNL     1     -47.713  54.207   5.200  0.00  0.00    -0.270 OA
ATOM     12  C15 UNL     1     -49.797  55.685   4.906  0.00  0.00    +0.110 C 
ATOM     13  C16 UNL     1     -50.817  54.581   5.231  0.00  0.00    +0.015 C 
ATOM     14  C17 UNL     1     -49.627  55.920   3.394  0.00  0.00    +0.015 C 
BRANCH   9  15
ATOM     15  C7  UNL     1     -46.852  56.243   7.158  0.00  0.00    +0.108 C 
ATOM     16  C8  UNL     1     -45.626  56.312   6.221  0.00  0.00    +0.024 C 
ATOM     17  C9  UNL     1     -44.312  55.892   6.891  0.00  0.00    +0.002 C 
ATOM     18  C10 UNL     1     -43.946  56.736   8.122  0.00  0.00    +0.000 C 
ATOM     19  C11 UNL     1     -44.787  56.361   9.353  0.00  0.00    +0.000 C 
ATOM     20  C12 UNL     1     -46.111  57.138   9.481  0.00  0.00    +0.002 C 
ATOM     21  C13 UNL     1     -46.869  57.414   8.169  0.00  0.00    +0.024 C 
ENDBRANCH   9  15
ENDBRANCH   4   7
BRANCH   1  23
ATOM     22  C1  UNL     1     -54.684  61.636   4.778  0.00  0.00    +0.253 C 
ATOM     23  O1  UNL     1     -54.578  60.480   5.602  0.00  0.00    -0.468 OA
ENDBRANCH   1  23
BRANCH   6  24
ATOM     24  O3  UNL     1     -52.399  61.112   7.119  0.00  0.00    -0.472 OA
BRANCH  24  25
ATOM     25  C20 UNL     1     -52.169  61.224   8.524  0.00  0.00    +0.206 C 
BRANCH  25  26
ATOM     26  C21 UNL     1     -50.912  62.059   8.802  0.00  0.00    +0.051 C 
BRANCH  26  27
ATOM     27  C22 UNL     1     -49.694  61.189   9.149  0.00  0.00    +0.051 C 
BRANCH  27  28
ATOM     28  C23 UNL     1     -48.960  60.683   7.901  0.00  0.00    +0.206 C 
BRANCH  28  29
ATOM     29  O4  UNL     1     -48.081  61.689   7.398  0.00  0.00    -0.475 OA
BRANCH  29  30
ATOM     30  C24 UNL     1     -48.416  62.657   6.437  0.00  0.00    +0.139 A 
ATOM     31  C25 UNL     1     -47.705  63.862   6.287  0.00  0.00    +0.037 A 
ATOM     32  C26 UNL     1     -48.080  64.787   5.308  0.00  0.00    +0.006 A 
ATOM     33  C27 UNL     1     -49.170  64.528   4.458  0.00  0.00    +0.040 A 
ATOM     34  C29 UNL     1     -49.876  63.323   4.613  0.00  0.00    +0.006 A 
ATOM     35  C30 UNL     1     -49.500  62.400   5.592  0.00  0.00    +0.037 A 
BRANCH  33  36
ATOM     36  C28 UNL     1     -49.563  65.507   3.414  0.00  0.00    +0.208 A 
ATOM     37  N3  UNL     1     -50.753  65.531   2.776  0.00  0.00    -0.106 NA
ATOM     38  N4  UNL     1     -50.688  66.547   1.932  0.00  0.00    -0.021 NA
ATOM     39  N5  UNL     1     -49.510  67.134   2.038  0.00  0.00    -0.021 NA
ATOM     40  N6  UNL     1     -48.785  66.510   2.951  0.00  0.00    -0.106 NA
ENDBRANCH  33  36
ENDBRANCH  29  30
ENDBRANCH  28  29
ENDBRANCH  27  28
ENDBRANCH  26  27
ENDBRANCH  25  26
ENDBRANCH  24  25
ENDBRANCH   6  24
TORSDOF 11
ENDMDL
MODEL 6
REMARK VINA RESULT:      -7.6      3.429      5.457
REMARK  Name = ./data/4wxx_site2_bc02/pdb/l0c2.pdb
REMARK  11 active torsions:
REMARK  status: ('A' for Active; 'I' for Inactive)
REMARK    1  A    between atoms: O1_2  and  C2_3
REMARK    2  A    between atoms: C5_6  and  C6_7
REMARK    3  A    between atoms: N2_9  and  C7_10
REMARK    4  A    between atoms: C19_23  and  O3_24
REMARK    5  A    between atoms: O3_24  and  C20_25
REMARK    6  A    between atoms: C20_25  and  C21_26
REMARK    7  A    between atoms: C21_26  and  C22_27
REMARK    8  A    between atoms: C22_27  and  C23_28
REMARK    9  A    between atoms: C23_28  and  O4_29
REMARK   10  A    between atoms: O4_29  and  C24_30
REMARK   11  A    between atoms: C27_33  and  C28_34
REMARK                            x       y       z     vdW  Elec       q    Type
REMARK                         _______ _______ _______ _____ _____    ______ ____
ROOT
ATOM      1  C2  UNL     1     -53.211  59.750   5.844  0.00  0.00    +0.172 A 
ATOM      2  C3  UNL     1     -53.421  58.368   5.981  0.00  0.00    +0.040 A 
ATOM      3  C4  UNL     1     -52.342  57.481   5.969  0.00  0.00    +0.005 A 
ATOM      4  C5  UNL     1     -51.027  57.950   5.809  0.00  0.00    +0.019 A 
ATOM      5  C18 UNL     1     -50.826  59.338   5.668  0.00  0.00    +0.041 A 
ATOM      6  C19 UNL     1     -51.907  60.239   5.695  0.00  0.00    +0.172 A 
ENDROOT
BRANCH   4   7
ATOM      7  C6  UNL     1     -49.849  57.032   5.791  0.00  0.00    +0.086 C 
ATOM      8  N1  UNL     1     -48.828  57.241   6.560  0.00  0.00    -0.171 NA
ATOM      9  N2  UNL     1     -47.879  56.236   6.384  0.00  0.00    -0.222 N 
ATOM     10  C14 UNL     1     -48.302  55.377   5.515  0.00  0.00    +0.257 C 
ATOM     11  O2  UNL     1     -47.585  54.238   5.150  0.00  0.00    -0.270 OA
ATOM     12  C15 UNL     1     -49.644  55.768   4.968  0.00  0.00    +0.110 C 
ATOM     13  C16 UNL     1     -50.677  54.676   5.291  0.00  0.00    +0.015 C 
ATOM     14  C17 UNL     1     -49.517  56.047   3.460  0.00  0.00    +0.015 C 
BRANCH   9  15
ATOM     15  C7  UNL     1     -46.620  56.193   7.143  0.00  0.00    +0.108 C 
ATOM     16  C8  UNL     1     -45.426  56.395   6.183  0.00  0.00    +0.024 C 
ATOM     17  C9  UNL     1     -44.081  55.943   6.766  0.00  0.00    +0.002 C 
ATOM     18  C10 UNL     1     -43.698  56.660   8.070  0.00  0.00    +0.000 C 
ATOM     19  C11 UNL     1     -44.490  56.134   9.277  0.00  0.00    +0.000 C 
ATOM     20  C12 UNL     1     -45.827  56.856   9.526  0.00  0.00    +0.002 C 
ATOM     21  C13 UNL     1     -46.634  57.248   8.274  0.00  0.00    +0.024 C 
ENDBRANCH   9  15
ENDBRANCH   4   7
BRANCH   1  23
ATOM     22  C1  UNL     1     -54.901  61.165   7.034  0.00  0.00    +0.253 C 
ATOM     23  O1  UNL     1     -54.272  60.669   5.855  0.00  0.00    -0.468 OA
ENDBRANCH   1  23
BRANCH   6  24
ATOM     24  O3  UNL     1     -51.733  61.630   5.577  0.00  0.00    -0.472 OA
BRANCH  24  25
ATOM     25  C20 UNL     1     -52.310  62.461   4.570  0.00  0.00    +0.206 C 
BRANCH  25  26
ATOM     26  C21 UNL     1     -51.694  63.866   4.609  0.00  0.00    +0.051 C 
BRANCH  26  27
ATOM     27  C22 UNL     1     -50.305  63.916   3.954  0.00  0.00    +0.051 C 
BRANCH  27  28
ATOM     28  C23 UNL     1     -49.192  64.233   4.961  0.00  0.00    +0.206 C 
BRANCH  28  29
ATOM     29  O4  UNL     1     -48.484  63.043   5.309  0.00  0.00    -0.475 OA
BRANCH  29  30
ATOM     30  C24 UNL     1     -48.677  62.293   6.480  0.00  0.00    +0.139 A 
ATOM     31  C25 UNL     1     -49.694  62.578   7.411  0.00  0.00    +0.037 A 
ATOM     32  C26 UNL     1     -49.842  61.793   8.558  0.00  0.00    +0.006 A 
ATOM     33  C27 UNL     1     -48.982  60.707   8.800  0.00  0.00    +0.040 A 
ATOM     34  C29 UNL     1     -47.968  60.428   7.867  0.00  0.00    +0.006 A 
ATOM     35  C30 UNL     1     -47.821  61.214   6.721  0.00  0.00    +0.037 A 
BRANCH  33  36
ATOM     36  C28 UNL     1     -49.146  59.869  10.014  0.00  0.00    +0.208 A 
ATOM     37  N3  UNL     1     -50.205  59.907  10.851  0.00  0.00    -0.106 NA
ATOM     38  N4  UNL     1     -49.950  59.016  11.794  0.00  0.00    -0.021 NA
ATOM     39  N5  UNL     1     -48.784  58.444  11.556  0.00  0.00    -0.021 NA
ATOM     40  N6  UNL     1     -48.257  58.954  10.456  0.00  0.00    -0.106 NA
ENDBRANCH  33  36
ENDBRANCH  29  30
ENDBRANCH  28  29
ENDBRANCH  27  28
ENDBRANCH  26  27
ENDBRANCH  25  26
ENDBRANCH  24  25
ENDBRANCH   6  24
TORSDOF 11
ENDMDL
MODEL 7
REMARK VINA RESULT:      -7.3      2.654      6.033
REMARK  Name = ./data/4wxx_site2_bc02/pdb/l0c2.pdb
REMARK  11 active torsions:
REMARK  status: ('A' for Active; 'I' for Inactive)
REMARK    1  A    between atoms: O1_2  and  C2_3
REMARK    2  A    between atoms: C5_6  and  C6_7
REMARK    3  A    between atoms: N2_9  and  C7_10
REMARK    4  A    between atoms: C19_23  and  O3_24
REMARK    5  A    between atoms: O3_24  and  C20_25
REMARK    6  A    between atoms: C20_25  and  C21_26
REMARK    7  A    between atoms: C21_26  and  C22_27
REMARK    8  A    between atoms: C22_27  and  C23_28
REMARK    9  A    between atoms: C23_28  and  O4_29
REMARK   10  A    between atoms: O4_29  and  C24_30
REMARK   11  A    between atoms: C27_33  and  C28_34
REMARK                            x       y       z     vdW  Elec       q    Type
REMARK                         _______ _______ _______ _____ _____    ______ ____
ROOT
ATOM      1  C2  UNL     1     -45.534  56.516   7.472  0.00  0.00    +0.172 A 
ATOM      2  C3  UNL     1     -45.422  55.334   6.722  0.00  0.00    +0.040 A 
ATOM      3  C4  UNL     1     -46.506  54.856   5.984  0.00  0.00    +0.005 A 
ATOM      4  C5  UNL     1     -47.734  55.540   5.983  0.00  0.00    +0.019 A 
ATOM      5  C18 UNL     1     -47.839  56.723   6.742  0.00  0.00    +0.041 A 
ATOM      6  C19 UNL     1     -46.745  57.220   7.476  0.00  0.00    +0.172 A 
ENDROOT
BRANCH   4   7
ATOM      7  C6  UNL     1     -48.916  55.059   5.207  0.00  0.00    +0.086 C 
ATOM      8  N1  UNL     1     -49.826  54.323   5.763  0.00  0.00    -0.171 NA
ATOM      9  N2  UNL     1     -50.836  54.033   4.848  0.00  0.00    -0.222 N 
ATOM     10  C14 UNL     1     -50.579  54.598   3.713  0.00  0.00    +0.257 C 
ATOM     11  O2  UNL     1     -51.424  54.515   2.607  0.00  0.00    -0.270 OA
ATOM     12  C15 UNL     1     -49.274  55.338   3.754  0.00  0.00    +0.110 C 
ATOM     13  C16 UNL     1     -49.513  56.832   3.478  0.00  0.00    +0.015 C 
ATOM     14  C17 UNL     1     -48.293  54.693   2.759  0.00  0.00    +0.015 C 
BRANCH   9  15
ATOM     15  C7  UNL     1     -52.018  53.233   5.200  0.00  0.00    +0.108 C 
ATOM     16  C8  UNL     1     -52.202  52.093   4.174  0.00  0.00    +0.024 C 
ATOM     17  C9  UNL     1     -53.607  51.479   4.177  0.00  0.00    +0.002 C 
ATOM     18  C10 UNL     1     -54.023  50.891   5.534  0.00  0.00    +0.000 C 
ATOM     19  C11 UNL     1     -54.411  51.982   6.545  0.00  0.00    +0.000 C 
ATOM     20  C12 UNL     1     -53.236  52.522   7.382  0.00  0.00    +0.002 C 
ATOM     21  C13 UNL     1     -51.895  52.692   6.644  0.00  0.00    +0.024 C 
ENDBRANCH   9  15
ENDBRANCH   4   7
BRANCH   1  23
ATOM     22  C1  UNL     1     -43.091  56.919   7.850  0.00  0.00    +0.253 C 
ATOM     23  O1  UNL     1     -44.462  57.026   8.222  0.00  0.00    -0.468 OA
ENDBRANCH   1  23
BRANCH   6  24
ATOM     24  O3  UNL     1     -46.816  58.408   8.225  0.00  0.00    -0.472 OA
BRANCH  24  25
ATOM     25  C20 UNL     1     -47.728  58.669   9.292  0.00  0.00    +0.206 C 
BRANCH  25  26
ATOM     26  C21 UNL     1     -48.707  59.786   8.904  0.00  0.00    +0.051 C 
BRANCH  26  27
ATOM     27  C22 UNL     1     -49.105  59.730   7.421  0.00  0.00    +0.051 C 
BRANCH  27  28
ATOM     28  C23 UNL     1     -50.597  60.009   7.203  0.00  0.00    +0.206 C 
BRANCH  28  29
ATOM     29  O4  UNL     1     -50.870  61.402   7.354  0.00  0.00    -0.475 OA
BRANCH  29  30
ATOM     30  C24 UNL     1     -50.064  62.447   6.874  0.00  0.00    +0.139 A 
ATOM     31  C25 UNL     1     -50.332  63.803   7.141  0.00  0.00    +0.037 A 
ATOM     32  C26 UNL     1     -49.491  64.802   6.641  0.00  0.00    +0.006 A 
ATOM     33  C27 UNL     1     -48.364  64.469   5.867  0.00  0.00    +0.040 A 
ATOM     34  C29 UNL     1     -48.102  63.114   5.604  0.00  0.00    +0.006 A 
ATOM     35  C30 UNL     1     -48.944  62.117   6.104  0.00  0.00    +0.037 A 
BRANCH  33  36
ATOM     36  C28 UNL     1     -47.468  65.529   5.344  0.00  0.00    +0.208 A 
ATOM     37  N3  UNL     1     -47.696  66.266   4.235  0.00  0.00    -0.106 NA
ATOM     38  N4  UNL     1     -46.661  67.081   4.125  0.00  0.00    -0.021 NA
ATOM     39  N5  UNL     1     -45.822  66.866   5.123  0.00  0.00    -0.021 NA
ATOM     40  N6  UNL     1     -46.295  65.905   5.899  0.00  0.00    -0.106 NA
ENDBRANCH  33  36
ENDBRANCH  29  30
ENDBRANCH  28  29
ENDBRANCH  27  28
ENDBRANCH  26  27
ENDBRANCH  25  26
ENDBRANCH  24  25
ENDBRANCH   6  24
TORSDOF 11
ENDMDL
MODEL 8
REMARK VINA RESULT:      -7.1      2.836      7.217
REMARK  Name = ./data/4wxx_site2_bc02/pdb/l0c2.pdb
REMARK  11 active torsions:
REMARK  status: ('A' for Active; 'I' for Inactive)
REMARK    1  A    between atoms: O1_2  and  C2_3
REMARK    2  A    between atoms: C5_6  and  C6_7
REMARK    3  A    between atoms: N2_9  and  C7_10
REMARK    4  A    between atoms: C19_23  and  O3_24
REMARK    5  A    between atoms: O3_24  and  C20_25
REMARK    6  A    between atoms: C20_25  and  C21_26
REMARK    7  A    between atoms: C21_26  and  C22_27
REMARK    8  A    between atoms: C22_27  and  C23_28
REMARK    9  A    between atoms: C23_28  and  O4_29
REMARK   10  A    between atoms: O4_29  and  C24_30
REMARK   11  A    between atoms: C27_33  and  C28_34
REMARK                            x       y       z     vdW  Elec       q    Type
REMARK                         _______ _______ _______ _____ _____    ______ ____
ROOT
ATOM      1  C2  UNL     1     -54.012  55.403   5.331  0.00  0.00    +0.172 A 
ATOM      2  C3  UNL     1     -54.861  56.135   6.177  0.00  0.00    +0.040 A 
ATOM      3  C4  UNL     1     -54.748  57.524   6.268  0.00  0.00    +0.005 A 
ATOM      4  C5  UNL     1     -53.778  58.217   5.523  0.00  0.00    +0.019 A 
ATOM      5  C18 UNL     1     -52.928  57.475   4.679  0.00  0.00    +0.041 A 
ATOM      6  C19 UNL     1     -53.046  56.076   4.571  0.00  0.00    +0.172 A 
ENDROOT
BRANCH   4   7
ATOM      7  C6  UNL     1     -53.627  59.702   5.594  0.00  0.00    +0.086 C 
ATOM      8  N1  UNL     1     -53.533  60.415   4.517  0.00  0.00    -0.171 NA
ATOM      9  N2  UNL     1     -53.434  61.767   4.842  0.00  0.00    -0.222 N 
ATOM     10  C14 UNL     1     -53.483  61.916   6.126  0.00  0.00    +0.257 C 
ATOM     11  O2  UNL     1     -53.438  63.159   6.756  0.00  0.00    -0.270 OA
ATOM     12  C15 UNL     1     -53.592  60.593   6.827  0.00  0.00    +0.110 C 
ATOM     13  C16 UNL     1     -54.897  60.539   7.637  0.00  0.00    +0.015 C 
ATOM     14  C17 UNL     1     -52.338  60.372   7.692  0.00  0.00    +0.015 C 
BRANCH   9  15
ATOM     15  C7  UNL     1     -53.338  62.822   3.823  0.00  0.00    +0.108 C 
ATOM     16  C8  UNL     1     -51.927  63.451   3.856  0.00  0.00    +0.024 C 
ATOM     17  C9  UNL     1     -51.845  64.819   3.166  0.00  0.00    +0.002 C 
ATOM     18  C10 UNL     1     -52.258  64.792   1.686  0.00  0.00    +0.000 C 
ATOM     19  C11 UNL     1     -53.783  64.706   1.510  0.00  0.00    +0.000 C 
ATOM     20  C12 UNL     1     -54.339  63.271   1.469  0.00  0.00    +0.002 C 
ATOM     21  C13 UNL     1     -53.683  62.257   2.425  0.00  0.00    +0.024 C 
ENDBRANCH   9  15
ENDBRANCH   4   7
BRANCH   1  23
ATOM     22  C1  UNL     1     -53.886  53.091   6.283  0.00  0.00    +0.253 C 
ATOM     23  O1  UNL     1     -54.101  54.007   5.214  0.00  0.00    -0.468 OA
ENDBRANCH   1  23
BRANCH   6  24
ATOM     24  O3  UNL     1     -52.225  55.312   3.723  0.00  0.00    -0.472 OA
BRANCH  24  25
ATOM     25  C20 UNL     1     -50.997  54.684   4.093  0.00  0.00    +0.206 C 
BRANCH  25  26
ATOM     26  C21 UNL     1     -49.798  55.499   3.589  0.00  0.00    +0.051 C 
BRANCH  26  27
ATOM     27  C22 UNL     1     -48.646  55.538   4.605  0.00  0.00    +0.051 C 
BRANCH  27  28
ATOM     28  C23 UNL     1     -49.091  56.059   5.978  0.00  0.00    +0.206 C 
BRANCH  28  29
ATOM     29  O4  UNL     1     -48.168  57.034   6.462  0.00  0.00    -0.475 OA
BRANCH  29  30
ATOM     30  C24 UNL     1     -48.377  58.423   6.466  0.00  0.00    +0.139 A 
ATOM     31  C25 UNL     1     -47.471  59.330   7.046  0.00  0.00    +0.037 A 
ATOM     32  C26 UNL     1     -47.729  60.704   7.016  0.00  0.00    +0.006 A 
ATOM     33  C27 UNL     1     -48.893  61.201   6.403  0.00  0.00    +0.040 A 
ATOM     34  C29 UNL     1     -49.794  60.290   5.826  0.00  0.00    +0.006 A 
ATOM     35  C30 UNL     1     -49.535  58.917   5.858  0.00  0.00    +0.037 A 
BRANCH  33  36
ATOM     36  C28 UNL     1     -49.162  62.660   6.364  0.00  0.00    +0.208 A 
ATOM     37  N3  UNL     1     -50.093  63.301   7.102  0.00  0.00    -0.106 NA
ATOM     38  N4  UNL     1     -50.006  64.576   6.762  0.00  0.00    -0.021 NA
ATOM     39  N5  UNL     1     -49.060  64.727   5.853  0.00  0.00    -0.021 NA
ATOM     40  N6  UNL     1     -48.516  63.552   5.583  0.00  0.00    -0.106 NA
ENDBRANCH  33  36
ENDBRANCH  29  30
ENDBRANCH  28  29
ENDBRANCH  27  28
ENDBRANCH  26  27
ENDBRANCH  25  26
ENDBRANCH  24  25
ENDBRANCH   6  24
TORSDOF 11
ENDMDL
MODEL 9
REMARK VINA RESULT:      -7.0      3.083      8.388
REMARK  Name = ./data/4wxx_site2_bc02/pdb/l0c2.pdb
REMARK  11 active torsions:
REMARK  status: ('A' for Active; 'I' for Inactive)
REMARK    1  A    between atoms: O1_2  and  C2_3
REMARK    2  A    between atoms: C5_6  and  C6_7
REMARK    3  A    between atoms: N2_9  and  C7_10
REMARK    4  A    between atoms: C19_23  and  O3_24
REMARK    5  A    between atoms: O3_24  and  C20_25
REMARK    6  A    between atoms: C20_25  and  C21_26
REMARK    7  A    between atoms: C21_26  and  C22_27
REMARK    8  A    between atoms: C22_27  and  C23_28
REMARK    9  A    between atoms: C23_28  and  O4_29
REMARK   10  A    between atoms: O4_29  and  C24_30
REMARK   11  A    between atoms: C27_33  and  C28_34
REMARK                            x       y       z     vdW  Elec       q    Type
REMARK                         _______ _______ _______ _____ _____    ______ ____
ROOT
ATOM      1  C2  UNL     1     -53.826  58.947   6.546  0.00  0.00    +0.172 A 
ATOM      2  C3  UNL     1     -54.642  60.072   6.341  0.00  0.00    +0.040 A 
ATOM      3  C4  UNL     1     -54.104  61.256   5.833  0.00  0.00    +0.005 A 
ATOM      4  C5  UNL     1     -52.736  61.352   5.527  0.00  0.00    +0.019 A 
ATOM      5  C18 UNL     1     -51.923  60.221   5.739  0.00  0.00    +0.041 A 
ATOM      6  C19 UNL     1     -52.461  59.018   6.236  0.00  0.00    +0.172 A 
ENDROOT
BRANCH   4   7
ATOM      7  C6  UNL     1     -52.125  62.602   4.983  0.00  0.00    +0.086 C 
ATOM      8  N1  UNL     1     -50.957  63.001   5.377  0.00  0.00    -0.171 NA
ATOM      9  N2  UNL     1     -50.593  64.166   4.704  0.00  0.00    -0.222 N 
ATOM     10  C14 UNL     1     -51.522  64.501   3.869  0.00  0.00    +0.257 C 
ATOM     11  O2  UNL     1     -51.434  65.609   3.028  0.00  0.00    -0.270 OA
ATOM     12  C15 UNL     1     -52.683  63.551   3.932  0.00  0.00    +0.110 C 
ATOM     13  C16 UNL     1     -52.878  62.875   2.565  0.00  0.00    +0.015 C 
ATOM     14  C17 UNL     1     -53.934  64.309   4.411  0.00  0.00    +0.015 C 
BRANCH   9  15
ATOM     15  C7  UNL     1     -49.306  64.839   4.926  0.00  0.00    +0.108 C 
ATOM     16  C8  UNL     1     -48.412  63.968   5.837  0.00  0.00    +0.024 C 
ATOM     17  C9  UNL     1     -47.253  64.737   6.483  0.00  0.00    +0.002 C 
ATOM     18  C10 UNL     1     -46.304  65.395   5.469  0.00  0.00    +0.000 C 
ATOM     19  C11 UNL     1     -46.906  66.665   4.848  0.00  0.00    +0.000 C 
ATOM     20  C12 UNL     1     -47.744  66.419   3.579  0.00  0.00    +0.002 C 
ATOM     21  C13 UNL     1     -48.619  65.151   3.575  0.00  0.00    +0.024 C 
ENDBRANCH   9  15
ENDBRANCH   4   7
BRANCH   1  23
ATOM     22  C1  UNL     1     -54.902  56.705   6.254  0.00  0.00    +0.253 C 
ATOM     23  O1  UNL     1     -54.334  57.740   7.051  0.00  0.00    -0.468 OA
ENDBRANCH   1  23
BRANCH   6  24
ATOM     24  O3  UNL     1     -51.678  57.868   6.438  0.00  0.00    -0.472 OA
BRANCH  24  25
ATOM     25  C20 UNL     1     -51.773  56.651   5.697  0.00  0.00    +0.206 C 
BRANCH  25  26
ATOM     26  C21 UNL     1     -51.466  56.896   4.213  0.00  0.00    +0.051 C 
BRANCH  26  27
ATOM     27  C22 UNL     1     -50.789  55.689   3.547  0.00  0.00    +0.051 C 
BRANCH  27  28
ATOM     28  C23 UNL     1     -49.271  55.669   3.772  0.00  0.00    +0.206 C 
BRANCH  28  29
ATOM     29  O4  UNL     1     -48.904  56.621   4.770  0.00  0.00    -0.475 OA
BRANCH  29  30
ATOM     30  C24 UNL     1     -47.849  56.475   5.686  0.00  0.00    +0.139 A 
ATOM     31  C25 UNL     1     -46.861  55.481   5.560  0.00  0.00    +0.037 A 
ATOM     32  C26 UNL     1     -45.830  55.386   6.500  0.00  0.00    +0.006 A 
ATOM     33  C27 UNL     1     -45.761  56.283   7.581  0.00  0.00    +0.040 A 
ATOM     34  C29 UNL     1     -46.751  57.274   7.701  0.00  0.00    +0.006 A 
ATOM     35  C30 UNL     1     -47.781  57.366   6.761  0.00  0.00    +0.037 A 
BRANCH  33  36
ATOM     36  C28 UNL     1     -44.662  56.187   8.573  0.00  0.00    +0.208 A 
ATOM     37  N3  UNL     1     -44.800  55.779   9.853  0.00  0.00    -0.106 NA
ATOM     38  N4  UNL     1     -43.591  55.846  10.385  0.00  0.00    -0.021 NA
ATOM     39  N5  UNL     1     -42.733  56.276   9.477  0.00  0.00    -0.021 NA
ATOM     40  N6  UNL     1     -43.369  56.498   8.339  0.00  0.00    -0.106 NA
ENDBRANCH  33  36
ENDBRANCH  29  30
ENDBRANCH  28  29
ENDBRANCH  27  28
ENDBRANCH  26  27
ENDBRANCH  25  26
ENDBRANCH  24  25
ENDBRANCH   6  24
TORSDOF 11
ENDMDL
