MODEL 1
REMARK VINA RESULT:      -9.2      0.000      0.000
REMARK  Name = ./data/4wxx_site2_bc02/pdb/l0c1.pdb
REMARK  11 active torsions:
REMARK  status: ('A' for Active; 'I' for Inactive)
REMARK    1  A    between atoms: O1_2  and  C2_3
REMARK    2  A    between atoms: C5_6  and  C6_7
REMARK    3  A    between atoms: N2_9  and  C7_10
REMARK    4  A    between atoms: C19_23  and  O3_24
REMARK    5  A    between atoms: O3_24  and  C20_25
REMARK    6  A    between atoms: C20_25  and  C21_26
REMARK    7  A    between atoms: C21_26  and  C22_27
REMARK    8  A    between atoms: C22_27  and  C23_28
REMARK    9  A    between atoms: C23_28  and  O4_29
REMARK   10  A    between atoms: O4_29  and  C24_30
REMARK   11  A    between atoms: C27_33  and  C28_34
REMARK                            x       y       z     vdW  Elec       q    Type
REMARK                         _______ _______ _______ _____ _____    ______ ____
ROOT
ATOM      1  C2  UNL     1     -52.421  63.055   6.904  0.00  0.00    +0.172 A 
ATOM      2  C3  UNL     1     -51.578  62.777   7.992  0.00  0.00    +0.040 A 
ATOM      3  C4  UNL     1     -50.737  61.662   7.971  0.00  0.00    +0.005 A 
ATOM      4  C5  UNL     1     -50.724  60.792   6.867  0.00  0.00    +0.019 A 
ATOM      5  C18 UNL     1     -51.534  61.101   5.762  0.00  0.00    +0.041 A 
ATOM      6  C19 UNL     1     -52.393  62.218   5.779  0.00  0.00    +0.172 A 
ENDROOT
BRANCH   4   7
ATOM      7  C6  UNL     1     -49.908  59.547   6.915  0.00  0.00    +0.086 C 
ATOM      8  N1  UNL     1     -50.208  58.519   6.185  0.00  0.00    -0.171 NA
ATOM      9  N2  UNL     1     -49.179  57.579   6.244  0.00  0.00    -0.222 N 
ATOM     10  C14 UNL     1     -48.227  58.010   7.006  0.00  0.00    +0.257 C 
ATOM     11  O2  UNL     1     -47.056  57.294   7.242  0.00  0.00    -0.270 OA
ATOM     12  C15 UNL     1     -48.556  59.352   7.594  0.00  0.00    +0.110 C 
ATOM     13  C16 UNL     1     -48.659  59.224   9.125  0.00  0.00    +0.015 C 
ATOM     14  C17 UNL     1     -47.521  60.403   7.150  0.00  0.00    +0.015 C 
BRANCH   9  15
ATOM     15  C7  UNL     1     -49.184  56.288   5.539  0.00  0.00    +0.108 C 
ATOM     16  C8  UNL     1     -49.126  56.484   3.998  0.00  0.00    +0.024 C 
ATOM     17  C9  UNL     1     -48.409  55.325   3.285  0.00  0.00    +0.002 C 
ATOM     18  C10 UNL     1     -49.252  54.052   3.158  0.00  0.00    +0.000 C 
ATOM     19  C11 UNL     1     -49.703  53.482   4.514  0.00  0.00    +0.000 C 
ATOM     20  C12 UNL     1     -50.856  54.298   5.117  0.00  0.00    +0.002 C 
ATOM     21  C13 UNL     1     -50.395  55.447   6.030  0.00  0.00    +0.024 C 
ENDBRANCH   9  15
ENDBRANCH   4   7
BRANCH   1  23
ATOM     22  C1  UNL     1     -53.812  64.777   8.073  0.00  0.00    +0.253 C 
ATOM     23  O1  UNL     1     -53.302  64.150   6.901  0.00  0.00    -0.468 OA
ENDBRANCH   1  23
BRANCH   6  24
ATOM     24  O3  UNL     1     -53.243  62.531   4.698  0.00  0.00    -0.472 OA
BRANCH  24  25
ATOM     25  C20 UNL     1     -53.964  61.582   3.909  0.00  0.00    +0.206 C 
BRANCH  25  26
ATOM     26  C21 UNL     1     -53.945  61.981   2.426  0.00  0.00    +0.051 C 
BRANCH  26  27
ATOM     27  C22 UNL     1     -53.889  63.506   2.275  0.00  0.00    +0.051 C 
BRANCH  27  28
ATOM     28  C23 UNL     1     -52.848  63.926   1.234  0.00  0.00    +0.206 C 
BRANCH  28  29
ATOM     29  O4  UNL     1     -52.281  65.190   1.579  0.00  0.00    -0.475 OA
BRANCH  29  30
ATOM     30  C24 UNL     1     -51.129  65.384   2.359  0.00  0.00    +0.139 A 
ATOM     31  C25 UNL     1     -50.803  64.577   3.464  0.00  0.00    +0.037 A 
ATOM     32  C26 UNL     1     -49.626  64.806   4.186  0.00  0.00    +0.006 A 
ATOM     33  C27 UNL     1     -48.752  65.850   3.826  0.00  0.00    +0.040 A 
ATOM     34  C29 UNL     1     -49.095  66.662   2.729  0.00  0.00    +0.006 A 
ATOM     35  C30 UNL     1     -50.267  66.427   2.004  0.00  0.00    +0.037 A 
BRANCH  33  36
ATOM     36  C28 UNL     1     -47.487  66.085   4.581  0.00  0.00    +0.208 A 
ATOM     37  N3  UNL     1     -46.532  66.978   4.245  0.00  0.00    -0.106 NA
ATOM     38  N4  UNL     1     -45.589  66.862   5.166  0.00  0.00    -0.021 NA
ATOM     39  N5  UNL     1     -45.938  65.937   6.044  0.00  0.00    -0.021 NA
ATOM     40  N6  UNL     1     -47.114  65.433   5.705  0.00  0.00    -0.106 NA
ENDBRANCH  33  36
ENDBRANCH  29  30
ENDBRANCH  28  29
ENDBRANCH  27  28
ENDBRANCH  26  27
ENDBRANCH  25  26
ENDBRANCH  24  25
ENDBRANCH   6  24
TORSDOF 11
ENDMDL
MODEL 2
REMARK VINA RESULT:      -7.7      2.101      3.295
REMARK  Name = ./data/4wxx_site2_bc02/pdb/l0c1.pdb
REMARK  11 active torsions:
REMARK  status: ('A' for Active; 'I' for Inactive)
REMARK    1  A    between atoms: O1_2  and  C2_3
REMARK    2  A    between atoms: C5_6  and  C6_7
REMARK    3  A    between atoms: N2_9  and  C7_10
REMARK    4  A    between atoms: C19_23  and  O3_24
REMARK    5  A    between atoms: O3_24  and  C20_25
REMARK    6  A    between atoms: C20_25  and  C21_26
REMARK    7  A    between atoms: C21_26  and  C22_27
REMARK    8  A    between atoms: C22_27  and  C23_28
REMARK    9  A    between atoms: C23_28  and  O4_29
REMARK   10  A    between atoms: O4_29  and  C24_30
REMARK   11  A    between atoms: C27_33  and  C28_34
REMARK                            x       y       z     vdW  Elec       q    Type
REMARK                         _______ _______ _______ _____ _____    ______ ____
ROOT
ATOM      1  C2  UNL     1     -51.731  62.459   7.863  0.00  0.00    +0.172 A 
ATOM      2  C3  UNL     1     -50.877  61.983   8.872  0.00  0.00    +0.040 A 
ATOM      3  C4  UNL     1     -49.935  60.991   8.592  0.00  0.00    +0.005 A 
ATOM      4  C5  UNL     1     -49.827  60.443   7.302  0.00  0.00    +0.019 A 
ATOM      5  C18 UNL     1     -50.650  60.956   6.287  0.00  0.00    +0.041 A 
ATOM      6  C19 UNL     1     -51.611  61.949   6.561  0.00  0.00    +0.172 A 
ENDROOT
BRANCH   4   7
ATOM      7  C6  UNL     1     -48.898  59.305   7.056  0.00  0.00    +0.086 C 
ATOM      8  N1  UNL     1     -47.843  59.130   7.788  0.00  0.00    -0.171 NA
ATOM      9  N2  UNL     1     -47.270  57.890   7.505  0.00  0.00    -0.222 N 
ATOM     10  C14 UNL     1     -47.961  57.278   6.598  0.00  0.00    +0.257 C 
ATOM     11  O2  UNL     1     -47.641  56.008   6.125  0.00  0.00    -0.270 OA
ATOM     12  C15 UNL     1     -49.121  58.111   6.134  0.00  0.00    +0.110 C 
ATOM     13  C16 UNL     1     -48.936  58.452   4.644  0.00  0.00    +0.015 C 
ATOM     14  C17 UNL     1     -50.451  57.389   6.422  0.00  0.00    +0.015 C 
BRANCH   9  15
ATOM     15  C7  UNL     1     -46.056  57.363   8.148  0.00  0.00    +0.108 C 
ATOM     16  C8  UNL     1     -45.535  56.092   7.420  0.00  0.00    +0.024 C 
ATOM     17  C9  UNL     1     -44.007  55.944   7.518  0.00  0.00    +0.002 C 
ATOM     18  C10 UNL     1     -43.513  55.448   8.880  0.00  0.00    +0.000 C 
ATOM     19  C11 UNL     1     -43.910  56.370  10.045  0.00  0.00    +0.000 C 
ATOM     20  C12 UNL     1     -45.391  56.208  10.419  0.00  0.00    +0.002 C 
ATOM     21  C13 UNL     1     -46.331  57.163   9.664  0.00  0.00    +0.024 C 
ENDBRANCH   9  15
ENDBRANCH   4   7
BRANCH   1  23
ATOM     22  C1  UNL     1     -53.865  63.230   8.920  0.00  0.00    +0.253 C 
ATOM     23  O1  UNL     1     -52.712  63.435   8.112  0.00  0.00    -0.468 OA
ENDBRANCH   1  23
BRANCH   6  24
ATOM     24  O3  UNL     1     -52.475  62.457   5.568  0.00  0.00    -0.472 OA
BRANCH  24  25
ATOM     25  C20 UNL     1     -53.677  61.829   5.117  0.00  0.00    +0.206 C 
BRANCH  25  26
ATOM     26  C21 UNL     1     -53.659  61.653   3.591  0.00  0.00    +0.051 C 
BRANCH  26  27
ATOM     27  C22 UNL     1     -53.965  62.981   2.888  0.00  0.00    +0.051 C 
BRANCH  27  28
ATOM     28  C23 UNL     1     -52.871  63.344   1.879  0.00  0.00    +0.206 C 
BRANCH  28  29
ATOM     29  O4  UNL     1     -52.409  64.675   2.104  0.00  0.00    -0.475 OA
BRANCH  29  30
ATOM     30  C24 UNL     1     -51.174  65.027   2.676  0.00  0.00    +0.139 A 
ATOM     31  C25 UNL     1     -50.416  66.133   2.247  0.00  0.00    +0.037 A 
ATOM     32  C26 UNL     1     -49.205  66.446   2.875  0.00  0.00    +0.006 A 
ATOM     33  C27 UNL     1     -48.720  65.660   3.938  0.00  0.00    +0.040 A 
ATOM     34  C29 UNL     1     -49.478  64.548   4.349  0.00  0.00    +0.006 A 
ATOM     35  C30 UNL     1     -50.691  64.240   3.726  0.00  0.00    +0.037 A 
BRANCH  33  36
ATOM     36  C28 UNL     1     -47.439  66.003   4.622  0.00  0.00    +0.208 A 
ATOM     37  N3  UNL     1     -47.029  65.501   5.806  0.00  0.00    -0.106 NA
ATOM     38  N4  UNL     1     -45.857  66.065   6.050  0.00  0.00    -0.021 NA
ATOM     39  N5  UNL     1     -45.543  66.883   5.059  0.00  0.00    -0.021 NA
ATOM     40  N6  UNL     1     -46.510  66.868   4.156  0.00  0.00    -0.106 NA
ENDBRANCH  33  36
ENDBRANCH  29  30
ENDBRANCH  28  29
ENDBRANCH  27  28
ENDBRANCH  26  27
ENDBRANCH  25  26
ENDBRANCH  24  25
ENDBRANCH   6  24
TORSDOF 11
ENDMDL
MODEL 3
REMARK VINA RESULT:      -7.4      2.849      4.705
REMARK  Name = ./data/4wxx_site2_bc02/pdb/l0c1.pdb
REMARK  11 active torsions:
REMARK  status: ('A' for Active; 'I' for Inactive)
REMARK    1  A    between atoms: O1_2  and  C2_3
REMARK    2  A    between atoms: C5_6  and  C6_7
REMARK    3  A    between atoms: N2_9  and  C7_10
REMARK    4  A    between atoms: C19_23  and  O3_24
REMARK    5  A    between atoms: O3_24  and  C20_25
REMARK    6  A    between atoms: C20_25  and  C21_26
REMARK    7  A    between atoms: C21_26  and  C22_27
REMARK    8  A    between atoms: C22_27  and  C23_28
REMARK    9  A    between atoms: C23_28  and  O4_29
REMARK   10  A    between atoms: O4_29  and  C24_30
REMARK   11  A    between atoms: C27_33  and  C28_34
REMARK                            x       y       z     vdW  Elec       q    Type
REMARK                         _______ _______ _______ _____ _____    ______ ____
ROOT
ATOM      1  C2  UNL     1     -48.548  64.937   5.185  0.00  0.00    +0.172 A 
ATOM      2  C3  UNL     1     -47.627  64.250   5.992  0.00  0.00    +0.040 A 
ATOM      3  C4  UNL     1     -47.863  62.924   6.365  0.00  0.00    +0.005 A 
ATOM      4  C5  UNL     1     -49.027  62.255   5.946  0.00  0.00    +0.019 A 
ATOM      5  C18 UNL     1     -49.919  62.932   5.099  0.00  0.00    +0.041 A 
ATOM      6  C19 UNL     1     -49.696  64.272   4.728  0.00  0.00    +0.172 A 
ENDROOT
BRANCH   4   7
ATOM      7  C6  UNL     1     -49.314  60.883   6.451  0.00  0.00    +0.086 C 
ATOM      8  N1  UNL     1     -50.027  60.050   5.761  0.00  0.00    -0.171 NA
ATOM      9  N2  UNL     1     -49.964  58.781   6.338  0.00  0.00    -0.222 N 
ATOM     10  C14 UNL     1     -49.208  58.808   7.387  0.00  0.00    +0.257 C 
ATOM     11  O2  UNL     1     -48.940  57.681   8.161  0.00  0.00    -0.270 OA
ATOM     12  C15 UNL     1     -48.682  60.188   7.653  0.00  0.00    +0.110 C 
ATOM     13  C16 UNL     1     -49.231  60.690   9.001  0.00  0.00    +0.015 C 
ATOM     14  C17 UNL     1     -47.142  60.198   7.593  0.00  0.00    +0.015 C 
BRANCH   9  15
ATOM     15  C7  UNL     1     -50.658  57.592   5.819  0.00  0.00    +0.108 C 
ATOM     16  C8  UNL     1     -49.872  56.944   4.645  0.00  0.00    +0.024 C 
ATOM     17  C9  UNL     1     -50.082  55.423   4.566  0.00  0.00    +0.002 C 
ATOM     18  C10 UNL     1     -51.435  55.007   3.980  0.00  0.00    +0.000 C 
ATOM     19  C11 UNL     1     -52.635  55.545   4.776  0.00  0.00    +0.000 C 
ATOM     20  C12 UNL     1     -52.872  57.038   4.507  0.00  0.00    +0.002 C 
ATOM     21  C13 UNL     1     -52.125  57.971   5.475  0.00  0.00    +0.024 C 
ENDBRANCH   9  15
ENDBRANCH   4   7
BRANCH   1  23
ATOM     22  C1  UNL     1     -47.466  66.718   3.797  0.00  0.00    +0.253 C 
ATOM     23  O1  UNL     1     -48.361  66.280   4.814  0.00  0.00    -0.468 OA
ENDBRANCH   1  23
BRANCH   6  24
ATOM     24  O3  UNL     1     -50.594  64.987   3.908  0.00  0.00    -0.472 OA
BRANCH  24  25
ATOM     25  C20 UNL     1     -50.576  65.004   2.478  0.00  0.00    +0.206 C 
BRANCH  25  26
ATOM     26  C21 UNL     1     -51.702  65.893   1.931  0.00  0.00    +0.051 C 
BRANCH  26  27
ATOM     27  C22 UNL     1     -52.555  65.123   0.915  0.00  0.00    +0.051 C 
BRANCH  27  28
ATOM     28  C23 UNL     1     -53.940  64.796   1.482  0.00  0.00    +0.206 C 
BRANCH  28  29
ATOM     29  O4  UNL     1     -53.965  63.465   1.996  0.00  0.00    -0.475 OA
BRANCH  29  30
ATOM     30  C24 UNL     1     -53.765  63.102   3.339  0.00  0.00    +0.139 A 
ATOM     31  C25 UNL     1     -53.794  64.028   4.398  0.00  0.00    +0.037 A 
ATOM     32  C26 UNL     1     -53.613  63.599   5.718  0.00  0.00    +0.006 A 
ATOM     33  C27 UNL     1     -53.392  62.238   6.009  0.00  0.00    +0.040 A 
ATOM     34  C29 UNL     1     -53.349  61.323   4.941  0.00  0.00    +0.006 A 
ATOM     35  C30 UNL     1     -53.537  61.752   3.624  0.00  0.00    +0.037 A 
BRANCH  33  36
ATOM     36  C28 UNL     1     -53.218  61.775   7.416  0.00  0.00    +0.208 A 
ATOM     37  N3  UNL     1     -52.886  60.521   7.790  0.00  0.00    -0.106 NA
ATOM     38  N4  UNL     1     -52.843  60.537   9.112  0.00  0.00    -0.021 NA
ATOM     39  N5  UNL     1     -53.133  61.751   9.550  0.00  0.00    -0.021 NA
ATOM     40  N6  UNL     1     -53.374  62.543   8.519  0.00  0.00    -0.106 NA
ENDBRANCH  33  36
ENDBRANCH  29  30
ENDBRANCH  28  29
ENDBRANCH  27  28
ENDBRANCH  26  27
ENDBRANCH  25  26
ENDBRANCH  24  25
ENDBRANCH   6  24
TORSDOF 11
ENDMDL
MODEL 4
REMARK VINA RESULT:      -6.8      2.982      8.991
REMARK  Name = ./data/4wxx_site2_bc02/pdb/l0c1.pdb
REMARK  11 active torsions:
REMARK  status: ('A' for Active; 'I' for Inactive)
REMARK    1  A    between atoms: O1_2  and  C2_3
REMARK    2  A    between atoms: C5_6  and  C6_7
REMARK    3  A    between atoms: N2_9  and  C7_10
REMARK    4  A    between atoms: C19_23  and  O3_24
REMARK    5  A    between atoms: O3_24  and  C20_25
REMARK    6  A    between atoms: C20_25  and  C21_26
REMARK    7  A    between atoms: C21_26  and  C22_27
REMARK    8  A    between atoms: C22_27  and  C23_28
REMARK    9  A    between atoms: C23_28  and  O4_29
REMARK   10  A    between atoms: O4_29  and  C24_30
REMARK   11  A    between atoms: C27_33  and  C28_34
REMARK                            x       y       z     vdW  Elec       q    Type
REMARK                         _______ _______ _______ _____ _____    ______ ____
ROOT
ATOM      1  C2  UNL     1     -49.315  59.558   7.501  0.00  0.00    +0.172 A 
ATOM      2  C3  UNL     1     -49.068  60.861   7.964  0.00  0.00    +0.040 A 
ATOM      3  C4  UNL     1     -49.787  61.943   7.451  0.00  0.00    +0.005 A 
ATOM      4  C5  UNL     1     -50.766  61.753   6.460  0.00  0.00    +0.019 A 
ATOM      5  C18 UNL     1     -51.042  60.443   6.036  0.00  0.00    +0.041 A 
ATOM      6  C19 UNL     1     -50.314  59.346   6.539  0.00  0.00    +0.172 A 
ENDROOT
BRANCH   4   7
ATOM      7  C6  UNL     1     -51.436  62.932   5.846  0.00  0.00    +0.086 C 
ATOM      8  N1  UNL     1     -51.578  63.031   4.561  0.00  0.00    -0.171 NA
ATOM      9  N2  UNL     1     -52.422  64.099   4.257  0.00  0.00    -0.222 N 
ATOM     10  C14 UNL     1     -52.818  64.674   5.346  0.00  0.00    +0.257 C 
ATOM     11  O2  UNL     1     -53.688  65.763   5.358  0.00  0.00    -0.270 OA
ATOM     12  C15 UNL     1     -52.220  64.028   6.561  0.00  0.00    +0.110 C 
ATOM     13  C16 UNL     1     -51.318  65.044   7.284  0.00  0.00    +0.015 C 
ATOM     14  C17 UNL     1     -53.328  63.459   7.469  0.00  0.00    +0.015 C 
BRANCH   9  15
ATOM     15  C7  UNL     1     -52.799  64.505   2.894  0.00  0.00    +0.108 C 
ATOM     16  C8  UNL     1     -52.924  63.275   1.952  0.00  0.00    +0.024 C 
ATOM     17  C9  UNL     1     -53.965  63.491   0.840  0.00  0.00    +0.002 C 
ATOM     18  C10 UNL     1     -53.486  64.399  -0.297  0.00  0.00    +0.000 C 
ATOM     19  C11 UNL     1     -53.092  65.809   0.173  0.00  0.00    +0.000 C 
ATOM     20  C12 UNL     1     -51.727  65.812   0.876  0.00  0.00    +0.002 C 
ATOM     21  C13 UNL     1     -51.809  65.593   2.396  0.00  0.00    +0.024 C 
ENDBRANCH   9  15
ENDBRANCH   4   7
BRANCH   1  23
ATOM     22  C1  UNL     1     -47.231  58.491   8.385  0.00  0.00    +0.253 C 
ATOM     23  O1  UNL     1     -48.591  58.448   7.970  0.00  0.00    -0.468 OA
ENDBRANCH   1  23
BRANCH   6  24
ATOM     24  O3  UNL     1     -50.546  58.024   6.104  0.00  0.00    -0.472 OA
BRANCH  24  25
ATOM     25  C20 UNL     1     -51.667  57.592   5.329  0.00  0.00    +0.206 C 
BRANCH  25  26
ATOM     26  C21 UNL     1     -52.072  56.161   5.710  0.00  0.00    +0.051 C 
BRANCH  26  27
ATOM     27  C22 UNL     1     -52.096  55.256   4.472  0.00  0.00    +0.051 C 
BRANCH  27  28
ATOM     28  C23 UNL     1     -51.332  53.952   4.718  0.00  0.00    +0.206 C 
BRANCH  28  29
ATOM     29  O4  UNL     1     -50.026  54.025   4.146  0.00  0.00    -0.475 OA
BRANCH  29  30
ATOM     30  C24 UNL     1     -48.867  54.466   4.807  0.00  0.00    +0.139 A 
ATOM     31  C25 UNL     1     -48.462  55.813   4.833  0.00  0.00    +0.037 A 
ATOM     32  C26 UNL     1     -47.310  56.193   5.531  0.00  0.00    +0.006 A 
ATOM     33  C27 UNL     1     -46.533  55.235   6.212  0.00  0.00    +0.040 A 
ATOM     34  C29 UNL     1     -46.937  53.889   6.167  0.00  0.00    +0.006 A 
ATOM     35  C30 UNL     1     -48.093  53.512   5.475  0.00  0.00    +0.037 A 
BRANCH  33  36
ATOM     36  C28 UNL     1     -45.315  55.639   6.973  0.00  0.00    +0.208 A 
ATOM     37  N3  UNL     1     -44.355  56.475   6.523  0.00  0.00    -0.106 NA
ATOM     38  N4  UNL     1     -43.463  56.558   7.497  0.00  0.00    -0.021 NA
ATOM     39  N5  UNL     1     -43.848  55.809   8.516  0.00  0.00    -0.021 NA
ATOM     40  N6  UNL     1     -44.996  55.222   8.219  0.00  0.00    -0.106 NA
ENDBRANCH  33  36
ENDBRANCH  29  30
ENDBRANCH  28  29
ENDBRANCH  27  28
ENDBRANCH  26  27
ENDBRANCH  25  26
ENDBRANCH  24  25
ENDBRANCH   6  24
TORSDOF 11
ENDMDL
MODEL 5
REMARK VINA RESULT:      -6.7      2.746      9.305
REMARK  Name = ./data/4wxx_site2_bc02/pdb/l0c1.pdb
REMARK  11 active torsions:
REMARK  status: ('A' for Active; 'I' for Inactive)
REMARK    1  A    between atoms: O1_2  and  C2_3
REMARK    2  A    between atoms: C5_6  and  C6_7
REMARK    3  A    between atoms: N2_9  and  C7_10
REMARK    4  A    between atoms: C19_23  and  O3_24
REMARK    5  A    between atoms: O3_24  and  C20_25
REMARK    6  A    between atoms: C20_25  and  C21_26
REMARK    7  A    between atoms: C21_26  and  C22_27
REMARK    8  A    between atoms: C22_27  and  C23_28
REMARK    9  A    between atoms: C23_28  and  O4_29
REMARK   10  A    between atoms: O4_29  and  C24_30
REMARK   11  A    between atoms: C27_33  and  C28_34
REMARK                            x       y       z     vdW  Elec       q    Type
REMARK                         _______ _______ _______ _____ _____    ______ ____
ROOT
ATOM      1  C2  UNL     1     -48.432  61.044   7.298  0.00  0.00    +0.172 A 
ATOM      2  C3  UNL     1     -47.989  61.587   6.080  0.00  0.00    +0.040 A 
ATOM      3  C4  UNL     1     -48.802  62.465   5.359  0.00  0.00    +0.005 A 
ATOM      4  C5  UNL     1     -50.078  62.818   5.832  0.00  0.00    +0.019 A 
ATOM      5  C18 UNL     1     -50.495  62.310   7.073  0.00  0.00    +0.041 A 
ATOM      6  C19 UNL     1     -49.688  61.415   7.802  0.00  0.00    +0.172 A 
ENDROOT
BRANCH   4   7
ATOM      7  C6  UNL     1     -50.972  63.662   4.991  0.00  0.00    +0.086 C 
ATOM      8  N1  UNL     1     -50.488  64.530   4.159  0.00  0.00    -0.171 NA
ATOM      9  N2  UNL     1     -51.507  65.024   3.344  0.00  0.00    -0.222 N 
ATOM     10  C14 UNL     1     -52.632  64.468   3.654  0.00  0.00    +0.257 C 
ATOM     11  O2  UNL     1     -53.827  64.749   2.996  0.00  0.00    -0.270 OA
ATOM     12  C15 UNL     1     -52.477  63.508   4.798  0.00  0.00    +0.110 C 
ATOM     13  C16 UNL     1     -53.297  64.014   5.999  0.00  0.00    +0.015 C 
ATOM     14  C17 UNL     1     -52.870  62.083   4.364  0.00  0.00    +0.015 C 
BRANCH   9  15
ATOM     15  C7  UNL     1     -51.318  66.030   2.288  0.00  0.00    +0.108 C 
ATOM     16  C8  UNL     1     -51.480  65.405   0.874  0.00  0.00    +0.024 C 
ATOM     17  C9  UNL     1     -52.024  66.411  -0.154  0.00  0.00    +0.002 C 
ATOM     18  C10 UNL     1     -50.987  67.425  -0.647  0.00  0.00    +0.000 C 
ATOM     19  C11 UNL     1     -50.385  68.279   0.481  0.00  0.00    +0.000 C 
ATOM     20  C12 UNL     1     -49.358  67.488   1.305  0.00  0.00    +0.002 C 
ATOM     21  C13 UNL     1     -49.962  66.755   2.514  0.00  0.00    +0.024 C 
ENDBRANCH   9  15
ENDBRANCH   4   7
BRANCH   1  23
ATOM     22  C1  UNL     1     -47.689  58.722   7.863  0.00  0.00    +0.253 C 
ATOM     23  O1  UNL     1     -47.656  60.134   8.037  0.00  0.00    -0.468 OA
ENDBRANCH   1  23
BRANCH   6  24
ATOM     24  O3  UNL     1     -50.097  60.862   9.034  0.00  0.00    -0.472 OA
BRANCH  24  25
ATOM     25  C20 UNL     1     -51.189  61.329   9.829  0.00  0.00    +0.206 C 
BRANCH  25  26
ATOM     26  C21 UNL     1     -52.462  60.523   9.530  0.00  0.00    +0.051 C 
BRANCH  26  27
ATOM     27  C22 UNL     1     -53.258  61.169   8.389  0.00  0.00    +0.051 C 
BRANCH  27  28
ATOM     28  C23 UNL     1     -53.709  60.127   7.363  0.00  0.00    +0.206 C 
BRANCH  28  29
ATOM     29  O4  UNL     1     -52.625  59.773   6.505  0.00  0.00    -0.475 OA
BRANCH  29  30
ATOM     30  C24 UNL     1     -52.233  58.463   6.179  0.00  0.00    +0.139 A 
ATOM     31  C25 UNL     1     -53.149  57.439   5.876  0.00  0.00    +0.037 A 
ATOM     32  C26 UNL     1     -52.694  56.161   5.534  0.00  0.00    +0.006 A 
ATOM     33  C27 UNL     1     -51.316  55.874   5.494  0.00  0.00    +0.040 A 
ATOM     34  C29 UNL     1     -50.408  56.900   5.814  0.00  0.00    +0.006 A 
ATOM     35  C30 UNL     1     -50.864  58.179   6.149  0.00  0.00    +0.037 A 
BRANCH  33  36
ATOM     36  C28 UNL     1     -50.827  54.517   5.111  0.00  0.00    +0.208 A 
ATOM     37  N3  UNL     1     -49.603  54.022   5.389  0.00  0.00    -0.106 NA
ATOM     38  N4  UNL     1     -49.579  52.804   4.873  0.00  0.00    -0.021 NA
ATOM     39  N5  UNL     1     -50.742  52.545   4.296  0.00  0.00    -0.021 NA
ATOM     40  N6  UNL     1     -51.538  53.593   4.426  0.00  0.00    -0.106 NA
ENDBRANCH  33  36
ENDBRANCH  29  30
ENDBRANCH  28  29
ENDBRANCH  27  28
ENDBRANCH  26  27
ENDBRANCH  25  26
ENDBRANCH  24  25
ENDBRANCH   6  24
TORSDOF 11
ENDMDL
MODEL 6
REMARK VINA RESULT:      -6.5      2.897      8.740
REMARK  Name = ./data/4wxx_site2_bc02/pdb/l0c1.pdb
REMARK  11 active torsions:
REMARK  status: ('A' for Active; 'I' for Inactive)
REMARK    1  A    between atoms: O1_2  and  C2_3
REMARK    2  A    between atoms: C5_6  and  C6_7
REMARK    3  A    between atoms: N2_9  and  C7_10
REMARK    4  A    between atoms: C19_23  and  O3_24
REMARK    5  A    between atoms: O3_24  and  C20_25
REMARK    6  A    between atoms: C20_25  and  C21_26
REMARK    7  A    between atoms: C21_26  and  C22_27
REMARK    8  A    between atoms: C22_27  and  C23_28
REMARK    9  A    between atoms: C23_28  and  O4_29
REMARK   10  A    between atoms: O4_29  and  C24_30
REMARK   11  A    between atoms: C27_33  and  C28_34
REMARK                            x       y       z     vdW  Elec       q    Type
REMARK                         _______ _______ _______ _____ _____    ______ ____
ROOT
ATOM      1  C2  UNL     1     -50.575  57.125   6.007  0.00  0.00    +0.172 A 
ATOM      2  C3  UNL     1     -49.533  57.666   6.779  0.00  0.00    +0.040 A 
ATOM      3  C4  UNL     1     -49.495  59.034   7.057  0.00  0.00    +0.005 A 
ATOM      4  C5  UNL     1     -50.491  59.897   6.566  0.00  0.00    +0.019 A 
ATOM      5  C18 UNL     1     -51.555  59.343   5.835  0.00  0.00    +0.041 A 
ATOM      6  C19 UNL     1     -51.596  57.966   5.540  0.00  0.00    +0.172 A 
ENDROOT
BRANCH   4   7
ATOM      7  C6  UNL     1     -50.367  61.366   6.776  0.00  0.00    +0.086 C 
ATOM      8  N1  UNL     1     -49.494  62.066   6.122  0.00  0.00    -0.171 NA
ATOM      9  N2  UNL     1     -49.725  63.426   6.329  0.00  0.00    -0.222 N 
ATOM     10  C14 UNL     1     -50.746  63.589   7.108  0.00  0.00    +0.257 C 
ATOM     11  O2  UNL     1     -51.228  64.842   7.478  0.00  0.00    -0.270 OA
ATOM     12  C15 UNL     1     -51.316  62.273   7.552  0.00  0.00    +0.110 C 
ATOM     13  C16 UNL     1     -51.165  62.144   9.078  0.00  0.00    +0.015 C 
ATOM     14  C17 UNL     1     -52.777  62.133   7.081  0.00  0.00    +0.015 C 
BRANCH   9  15
ATOM     15  C7  UNL     1     -48.922  64.510   5.743  0.00  0.00    +0.108 C 
ATOM     16  C8  UNL     1     -48.902  64.424   4.191  0.00  0.00    +0.024 C 
ATOM     17  C9  UNL     1     -48.765  65.805   3.528  0.00  0.00    +0.002 C 
ATOM     18  C10 UNL     1     -47.349  66.387   3.581  0.00  0.00    +0.000 C 
ATOM     19  C11 UNL     1     -46.816  66.566   5.013  0.00  0.00    +0.000 C 
ATOM     20  C12 UNL     1     -46.390  65.226   5.632  0.00  0.00    +0.002 C 
ATOM     21  C13 UNL     1     -47.514  64.510   6.401  0.00  0.00    +0.024 C 
ENDBRANCH   9  15
ENDBRANCH   4   7
BRANCH   1  23
ATOM     22  C1  UNL     1     -51.269  54.766   6.476  0.00  0.00    +0.253 C 
ATOM     23  O1  UNL     1     -50.631  55.759   5.680  0.00  0.00    -0.468 OA
ENDBRANCH   1  23
BRANCH   6  24
ATOM     24  O3  UNL     1     -52.634  57.389   4.778  0.00  0.00    -0.472 OA
BRANCH  24  25
ATOM     25  C20 UNL     1     -52.465  56.693   3.541  0.00  0.00    +0.206 C 
BRANCH  25  26
ATOM     26  C21 UNL     1     -53.185  55.337   3.576  0.00  0.00    +0.051 C 
BRANCH  26  27
ATOM     27  C22 UNL     1     -52.347  54.259   2.878  0.00  0.00    +0.051 C 
BRANCH  27  28
ATOM     28  C23 UNL     1     -51.171  54.874   2.113  0.00  0.00    +0.206 C 
BRANCH  28  29
ATOM     29  O4  UNL     1     -49.971  54.148   2.380  0.00  0.00    -0.475 OA
BRANCH  29  30
ATOM     30  C24 UNL     1     -49.064  54.420   3.418  0.00  0.00    +0.139 A 
ATOM     31  C25 UNL     1     -48.733  53.482   4.414  0.00  0.00    +0.037 A 
ATOM     32  C26 UNL     1     -47.801  53.805   5.408  0.00  0.00    +0.006 A 
ATOM     33  C27 UNL     1     -47.186  55.072   5.434  0.00  0.00    +0.040 A 
ATOM     34  C29 UNL     1     -47.536  56.007   4.443  0.00  0.00    +0.006 A 
ATOM     35  C30 UNL     1     -48.461  55.681   3.446  0.00  0.00    +0.037 A 
BRANCH  33  36
ATOM     36  C28 UNL     1     -46.178  55.412   6.480  0.00  0.00    +0.208 A 
ATOM     37  N3  UNL     1     -45.824  56.662   6.845  0.00  0.00    -0.106 NA
ATOM     38  N4  UNL     1     -44.909  56.518   7.789  0.00  0.00    -0.021 NA
ATOM     39  N5  UNL     1     -44.698  55.231   8.009  0.00  0.00    -0.021 NA
ATOM     40  N6  UNL     1     -45.472  54.517   7.207  0.00  0.00    -0.106 NA
ENDBRANCH  33  36
ENDBRANCH  29  30
ENDBRANCH  28  29
ENDBRANCH  27  28
ENDBRANCH  26  27
ENDBRANCH  25  26
ENDBRANCH  24  25
ENDBRANCH   6  24
TORSDOF 11
ENDMDL
MODEL 7
REMARK VINA RESULT:      -6.4      3.298      5.734
REMARK  Name = ./data/4wxx_site2_bc02/pdb/l0c1.pdb
REMARK  11 active torsions:
REMARK  status: ('A' for Active; 'I' for Inactive)
REMARK    1  A    between atoms: O1_2  and  C2_3
REMARK    2  A    between atoms: C5_6  and  C6_7
REMARK    3  A    between atoms: N2_9  and  C7_10
REMARK    4  A    between atoms: C19_23  and  O3_24
REMARK    5  A    between atoms: O3_24  and  C20_25
REMARK    6  A    between atoms: C20_25  and  C21_26
REMARK    7  A    between atoms: C21_26  and  C22_27
REMARK    8  A    between atoms: C22_27  and  C23_28
REMARK    9  A    between atoms: C23_28  and  O4_29
REMARK   10  A    between atoms: O4_29  and  C24_30
REMARK   11  A    between atoms: C27_33  and  C28_34
REMARK                            x       y       z     vdW  Elec       q    Type
REMARK                         _______ _______ _______ _____ _____    ______ ____
ROOT
ATOM      1  C2  UNL     1     -48.598  63.929   5.609  0.00  0.00    +0.172 A 
ATOM      2  C3  UNL     1     -47.554  63.421   6.399  0.00  0.00    +0.040 A 
ATOM      3  C4  UNL     1     -47.380  62.042   6.541  0.00  0.00    +0.005 A 
ATOM      4  C5  UNL     1     -48.248  61.137   5.905  0.00  0.00    +0.019 A 
ATOM      5  C18 UNL     1     -49.260  61.651   5.078  0.00  0.00    +0.041 A 
ATOM      6  C19 UNL     1     -49.451  63.040   4.937  0.00  0.00    +0.172 A 
ENDROOT
BRANCH   4   7
ATOM      7  C6  UNL     1     -48.115  59.677   6.164  0.00  0.00    +0.086 C 
ATOM      8  N1  UNL     1     -47.069  59.192   6.756  0.00  0.00    -0.171 NA
ATOM      9  N2  UNL     1     -47.284  57.852   7.077  0.00  0.00    -0.222 N 
ATOM     10  C14 UNL     1     -48.464  57.488   6.694  0.00  0.00    +0.257 C 
ATOM     11  O2  UNL     1     -48.968  56.205   6.898  0.00  0.00    -0.270 OA
ATOM     12  C15 UNL     1     -49.192  58.608   6.010  0.00  0.00    +0.110 C 
ATOM     13  C16 UNL     1     -49.455  58.221   4.543  0.00  0.00    +0.015 C 
ATOM     14  C17 UNL     1     -50.482  58.960   6.776  0.00  0.00    +0.015 C 
BRANCH   9  15
ATOM     15  C7  UNL     1     -46.304  56.987   7.753  0.00  0.00    +0.108 C 
ATOM     16  C8  UNL     1     -45.940  57.536   9.161  0.00  0.00    +0.024 C 
ATOM     17  C9  UNL     1     -45.573  56.418  10.151  0.00  0.00    +0.002 C 
ATOM     18  C10 UNL     1     -44.173  55.832   9.943  0.00  0.00    +0.000 C 
ATOM     19  C11 UNL     1     -43.968  55.225   8.545  0.00  0.00    +0.000 C 
ATOM     20  C12 UNL     1     -43.774  56.311   7.477  0.00  0.00    +0.002 C 
ATOM     21  C13 UNL     1     -45.084  56.774   6.815  0.00  0.00    +0.024 C 
ENDBRANCH   9  15
ENDBRANCH   4   7
BRANCH   1  23
ATOM     22  C1  UNL     1     -48.089  66.159   4.593  0.00  0.00    +0.253 C 
ATOM     23  O1  UNL     1     -48.824  65.309   5.466  0.00  0.00    -0.468 OA
ENDBRANCH   1  23
BRANCH   6  24
ATOM     24  O3  UNL     1     -50.481  63.583   4.141  0.00  0.00    -0.472 OA
BRANCH  24  25
ATOM     25  C20 UNL     1     -51.462  64.523   4.585  0.00  0.00    +0.206 C 
BRANCH  25  26
ATOM     26  C21 UNL     1     -52.878  64.027   4.259  0.00  0.00    +0.051 C 
BRANCH  26  27
ATOM     27  C22 UNL     1     -53.928  64.838   5.028  0.00  0.00    +0.051 C 
BRANCH  27  28
ATOM     28  C23 UNL     1     -53.399  65.283   6.394  0.00  0.00    +0.206 C 
BRANCH  28  29
ATOM     29  O4  UNL     1     -53.707  64.306   7.389  0.00  0.00    -0.475 OA
BRANCH  29  30
ATOM     30  C24 UNL     1     -52.793  63.406   7.962  0.00  0.00    +0.139 A 
ATOM     31  C25 UNL     1     -51.398  63.561   7.865  0.00  0.00    +0.037 A 
ATOM     32  C26 UNL     1     -50.540  62.642   8.481  0.00  0.00    +0.006 A 
ATOM     33  C27 UNL     1     -51.054  61.545   9.198  0.00  0.00    +0.040 A 
ATOM     34  C29 UNL     1     -52.451  61.390   9.276  0.00  0.00    +0.006 A 
ATOM     35  C30 UNL     1     -53.307  62.313   8.667  0.00  0.00    +0.037 A 
BRANCH  33  36
ATOM     36  C28 UNL     1     -50.142  60.575   9.872  0.00  0.00    +0.208 A 
ATOM     37  N3  UNL     1     -48.940  60.181   9.403  0.00  0.00    -0.106 NA
ATOM     38  N4  UNL     1     -48.470  59.320  10.291  0.00  0.00    -0.021 NA
ATOM     39  N5  UNL     1     -49.340  59.182  11.278  0.00  0.00    -0.021 NA
ATOM     40  N6  UNL     1     -50.393  59.948  11.044  0.00  0.00    -0.106 NA
ENDBRANCH  33  36
ENDBRANCH  29  30
ENDBRANCH  28  29
ENDBRANCH  27  28
ENDBRANCH  26  27
ENDBRANCH  25  26
ENDBRANCH  24  25
ENDBRANCH   6  24
TORSDOF 11
ENDMDL
