MODEL 1
REMARK VINA RESULT:      -7.3      0.000      0.000
REMARK  Name = ./threeLigTest/pdb/l0c0.pdb
REMARK  11 active torsions:
REMARK  status: ('A' for Active; 'I' for Inactive)
REMARK    1  A    between atoms: O1_2  and  C2_3
REMARK    2  A    between atoms: C5_6  and  C6_7
REMARK    3  A    between atoms: N2_9  and  C7_10
REMARK    4  A    between atoms: C19_23  and  O3_24
REMARK    5  A    between atoms: O3_24  and  C20_25
REMARK    6  A    between atoms: C20_25  and  C21_26
REMARK    7  A    between atoms: C21_26  and  C22_27
REMARK    8  A    between atoms: C22_27  and  C23_28
REMARK    9  A    between atoms: C23_28  and  O4_29
REMARK   10  A    between atoms: O4_29  and  C24_30
REMARK   11  A    between atoms: C27_33  and  C28_34
REMARK                            x       y       z     vdW  Elec       q    Type
REMARK                         _______ _______ _______ _____ _____    ______ ____
ROOT
ATOM      1  C2  UNL     1      20.049  54.724  -7.976  0.00  0.00    +0.172 A 
ATOM      2  C3  UNL     1      19.276  53.892  -7.152  0.00  0.00    +0.040 A 
ATOM      3  C4  UNL     1      19.044  54.236  -5.820  0.00  0.00    +0.005 A 
ATOM      4  C5  UNL     1      19.566  55.425  -5.279  0.00  0.00    +0.019 A 
ATOM      5  C18 UNL     1      20.306  56.273  -6.121  0.00  0.00    +0.041 A 
ATOM      6  C19 UNL     1      20.568  55.919  -7.458  0.00  0.00    +0.172 A 
ENDROOT
BRANCH   4   7
ATOM      7  C6  UNL     1      19.341  55.729  -3.835  0.00  0.00    +0.086 C 
ATOM      8  N1  UNL     1      19.790  56.823  -3.305  0.00  0.00    -0.171 NA
ATOM      9  N2  UNL     1      19.437  56.886  -1.959  0.00  0.00    -0.222 N 
ATOM     10  C14 UNL     1      18.758  55.837  -1.630  0.00  0.00    +0.257 C 
ATOM     11  O2  UNL     1      18.262  55.617  -0.346  0.00  0.00    -0.270 OA
ATOM     12  C15 UNL     1      18.583  54.910  -2.798  0.00  0.00    +0.110 C 
ATOM     13  C16 UNL     1      19.259  53.563  -2.494  0.00  0.00    +0.015 C 
ATOM     14  C17 UNL     1      17.085  54.773  -3.122  0.00  0.00    +0.015 C 
BRANCH   9  15
ATOM     15  C7  UNL     1      19.794  58.025  -1.101  0.00  0.00    +0.108 C 
ATOM     16  C8  UNL     1      21.227  58.512  -1.420  0.00  0.00    +0.024 C 
ATOM     17  C9  UNL     1      21.449  60.021  -1.211  0.00  0.00    +0.002 C 
ATOM     18  C10 UNL     1      20.781  60.646   0.027  0.00  0.00    +0.000 C 
ATOM     19  C11 UNL     1      20.787  59.750   1.277  0.00  0.00    +0.000 C 
ATOM     20  C12 UNL     1      19.559  58.829   1.338  0.00  0.00    +0.002 C 
ATOM     21  C13 UNL     1      19.638  57.630   0.385  0.00  0.00    +0.024 C 
ENDBRANCH   9  15
ENDBRANCH   4   7
BRANCH   1  23
ATOM     22  C1  UNL     1      19.791  55.045 -10.443  0.00  0.00    +0.253 C 
ATOM     23  O1  UNL     1      20.345  54.390  -9.307  0.00  0.00    -0.468 OA
ENDBRANCH   1  23
BRANCH   6  24
ATOM     24  O3  UNL     1      21.365  56.710  -8.299  0.00  0.00    -0.472 OA
BRANCH  24  25
ATOM     25  C20 UNL     1      21.455  58.133  -8.244  0.00  0.00    +0.206 C 
BRANCH  25  26
ATOM     26  C21 UNL     1      20.274  58.764  -8.993  0.00  0.00    +0.051 C 
BRANCH  26  27
ATOM     27  C22 UNL     1      19.351  59.612  -8.095  0.00  0.00    +0.051 C 
BRANCH  27  28
ATOM     28  C23 UNL     1      18.268  58.804  -7.358  0.00  0.00    +0.206 C 
BRANCH  28  29
ATOM     29  O4  UNL     1      18.124  59.194  -5.992  0.00  0.00    -0.475 OA
BRANCH  29  30
ATOM     30  C24 UNL     1      18.786  60.262  -5.363  0.00  0.00    +0.139 A 
ATOM     31  C25 UNL     1      18.081  61.457  -5.185  0.00  0.00    +0.037 A 
ATOM     32  C26 UNL     1      18.661  62.532  -4.509  0.00  0.00    +0.006 A 
ATOM     33  C27 UNL     1      19.968  62.434  -4.001  0.00  0.00    +0.040 A 
ATOM     34  C29 UNL     1      20.691  61.248  -4.220  0.00  0.00    +0.006 A 
ATOM     35  C30 UNL     1      20.110  60.173  -4.899  0.00  0.00    +0.037 A 
BRANCH  33  36
ATOM     36  C28 UNL     1      20.575  63.540  -3.224  0.00  0.00    +0.208 A 
ATOM     37  N3  UNL     1      20.382  64.847  -3.488  0.00  0.00    -0.106 NA
ATOM     38  N4  UNL     1      21.124  65.493  -2.599  0.00  0.00    -0.021 NA
ATOM     39  N5  UNL     1      21.754  64.625  -1.822  0.00  0.00    -0.021 NA
ATOM     40  N6  UNL     1      21.428  63.401  -2.193  0.00  0.00    -0.106 NA
ENDBRANCH  33  36
ENDBRANCH  29  30
ENDBRANCH  28  29
ENDBRANCH  27  28
ENDBRANCH  26  27
ENDBRANCH  25  26
ENDBRANCH  24  25
ENDBRANCH   6  24
TORSDOF 11
ENDMDL
MODEL 2
REMARK VINA RESULT:      -6.5      3.209      5.990
REMARK  Name = ./threeLigTest/pdb/l0c0.pdb
REMARK  11 active torsions:
REMARK  status: ('A' for Active; 'I' for Inactive)
REMARK    1  A    between atoms: O1_2  and  C2_3
REMARK    2  A    between atoms: C5_6  and  C6_7
REMARK    3  A    between atoms: N2_9  and  C7_10
REMARK    4  A    between atoms: C19_23  and  O3_24
REMARK    5  A    between atoms: O3_24  and  C20_25
REMARK    6  A    between atoms: C20_25  and  C21_26
REMARK    7  A    between atoms: C21_26  and  C22_27
REMARK    8  A    between atoms: C22_27  and  C23_28
REMARK    9  A    between atoms: C23_28  and  O4_29
REMARK   10  A    between atoms: O4_29  and  C24_30
REMARK   11  A    between atoms: C27_33  and  C28_34
REMARK                            x       y       z     vdW  Elec       q    Type
REMARK                         _______ _______ _______ _____ _____    ______ ____
ROOT
ATOM      1  C2  UNL     1      21.214  58.829 -10.250  0.00  0.00    +0.172 A 
ATOM      2  C3  UNL     1      20.774  57.608 -10.783  0.00  0.00    +0.040 A 
ATOM      3  C4  UNL     1      19.989  56.745 -10.017  0.00  0.00    +0.005 A 
ATOM      4  C5  UNL     1      19.613  57.083  -8.705  0.00  0.00    +0.019 A 
ATOM      5  C18 UNL     1      20.025  58.326  -8.191  0.00  0.00    +0.041 A 
ATOM      6  C19 UNL     1      20.839  59.189  -8.948  0.00  0.00    +0.172 A 
ENDROOT
BRANCH   4   7
ATOM      7  C6  UNL     1      18.819  56.109  -7.900  0.00  0.00    +0.086 C 
ATOM      8  N1  UNL     1      17.566  55.900  -8.151  0.00  0.00    -0.171 NA
ATOM      9  N2  UNL     1      17.054  54.938  -7.282  0.00  0.00    -0.222 N 
ATOM     10  C14 UNL     1      17.981  54.528  -6.480  0.00  0.00    +0.257 C 
ATOM     11  O2  UNL     1      17.773  53.562  -5.497  0.00  0.00    -0.270 OA
ATOM     12  C15 UNL     1      19.285  55.223  -6.751  0.00  0.00    +0.110 C 
ATOM     13  C16 UNL     1      19.707  56.030  -5.511  0.00  0.00    +0.015 C 
ATOM     14  C17 UNL     1      20.337  54.187  -7.182  0.00  0.00    +0.015 C 
BRANCH   9  15
ATOM     15  C7  UNL     1      15.659  54.480  -7.343  0.00  0.00    +0.108 C 
ATOM     16  C8  UNL     1      14.840  55.374  -8.303  0.00  0.00    +0.024 C 
ATOM     17  C9  UNL     1      13.692  54.648  -9.028  0.00  0.00    +0.002 C 
ATOM     18  C10 UNL     1      12.887  53.635  -8.193  0.00  0.00    +0.000 C 
ATOM     19  C11 UNL     1      12.647  54.058  -6.734  0.00  0.00    +0.000 C 
ATOM     20  C12 UNL     1      13.783  53.606  -5.803  0.00  0.00    +0.002 C 
ATOM     21  C13 UNL     1      15.054  54.458  -5.920  0.00  0.00    +0.024 C 
ENDBRANCH   9  15
ENDBRANCH   4   7
BRANCH   1  23
ATOM     22  C1  UNL     1      21.709  60.274 -12.231  0.00  0.00    +0.253 C 
ATOM     23  O1  UNL     1      22.044  59.703 -10.970  0.00  0.00    -0.468 OA
ENDBRANCH   1  23
BRANCH   6  24
ATOM     24  O3  UNL     1      21.325  60.401  -8.434  0.00  0.00    -0.472 OA
BRANCH  24  25
ATOM     25  C20 UNL     1      20.694  61.170  -7.411  0.00  0.00    +0.206 C 
BRANCH  25  26
ATOM     26  C21 UNL     1      20.974  60.546  -6.038  0.00  0.00    +0.051 C 
BRANCH  26  27
ATOM     27  C22 UNL     1      19.860  59.598  -5.548  0.00  0.00    +0.051 C 
BRANCH  27  28
ATOM     28  C23 UNL     1      19.430  59.827  -4.089  0.00  0.00    +0.206 C 
BRANCH  28  29
ATOM     29  O4  UNL     1      20.260  60.771  -3.411  0.00  0.00    -0.475 OA
BRANCH  29  30
ATOM     30  C24 UNL     1      20.022  62.151  -3.302  0.00  0.00    +0.139 A 
ATOM     31  C25 UNL     1      21.071  62.965  -2.861  0.00  0.00    +0.037 A 
ATOM     32  C26 UNL     1      20.919  64.351  -2.794  0.00  0.00    +0.006 A 
ATOM     33  C27 UNL     1      19.703  64.952  -3.161  0.00  0.00    +0.040 A 
ATOM     34  C29 UNL     1      18.634  64.130  -3.561  0.00  0.00    +0.006 A 
ATOM     35  C30 UNL     1      18.789  62.742  -3.626  0.00  0.00    +0.037 A 
BRANCH  33  36
ATOM     36  C28 UNL     1      19.544  66.426  -3.160  0.00  0.00    +0.208 A 
ATOM     37  N3  UNL     1      18.834  67.111  -2.241  0.00  0.00    -0.106 NA
ATOM     38  N4  UNL     1      18.910  68.378  -2.620  0.00  0.00    -0.021 NA
ATOM     39  N5  UNL     1      19.629  68.476  -3.728  0.00  0.00    -0.021 NA
ATOM     40  N6  UNL     1      20.034  67.271  -4.084  0.00  0.00    -0.106 NA
ENDBRANCH  33  36
ENDBRANCH  29  30
ENDBRANCH  28  29
ENDBRANCH  27  28
ENDBRANCH  26  27
ENDBRANCH  25  26
ENDBRANCH  24  25
ENDBRANCH   6  24
TORSDOF 11
ENDMDL
