MODEL 1
REMARK VINA RESULT:     -10.7      0.000      0.000
REMARK  Name = ./threeLigTest/pdb/l1c3.pdb
REMARK  11 active torsions:
REMARK  status: ('A' for Active; 'I' for Inactive)
REMARK    1  A    between atoms: O1_2  and  C2_3
REMARK    2  A    between atoms: C5_6  and  C6_7
REMARK    3  A    between atoms: N2_9  and  C7_10
REMARK    4  A    between atoms: C22_26  and  O3_27
REMARK    5  A    between atoms: O3_27  and  C23_28
REMARK    6  A    between atoms: C23_28  and  C24_29
REMARK    7  A    between atoms: C24_29  and  C25_30
REMARK    8  A    between atoms: C25_30  and  C26_31
REMARK    9  A    between atoms: C26_31  and  O4_32
REMARK   10  A    between atoms: O4_32  and  C27_33
REMARK   11  A    between atoms: C30_36  and  C31_37
REMARK                            x       y       z     vdW  Elec       q    Type
REMARK                         _______ _______ _______ _____ _____    ______ ____
ROOT
ATOM      1  C2  UNL     1      18.589  62.064  -4.287  0.00  0.00    +0.172 A 
ATOM      2  C3  UNL     1      17.841  61.711  -5.423  0.00  0.00    +0.040 A 
ATOM      3  C4  UNL     1      18.220  60.626  -6.213  0.00  0.00    +0.005 A 
ATOM      4  C5  UNL     1      19.347  59.855  -5.880  0.00  0.00    +0.018 A 
ATOM      5  C21 UNL     1      20.096  60.217  -4.742  0.00  0.00    +0.041 A 
ATOM      6  C22 UNL     1      19.721  61.314  -3.944  0.00  0.00    +0.172 A 
ENDROOT
BRANCH   4   7
ATOM      7  C6  UNL     1      19.766  58.684  -6.705  0.00  0.00    +0.077 C 
ATOM      8  N1  UNL     1      20.773  58.827  -7.522  0.00  0.00    -0.180 NA
ATOM      9  N2  UNL     1      21.257  57.852  -8.428  0.00  0.00    -0.183 N 
ATOM     10  C14 UNL     1      21.130  56.519  -7.861  0.00  0.00    +0.244 C 
ATOM     11  O2  UNL     1      21.935  55.653  -8.173  0.00  0.00    -0.273 OA
ATOM     12  C15 UNL     1      20.095  56.206  -6.799  0.00  0.00    +0.089 C 
ATOM     13  C16 UNL     1      19.388  54.863  -7.028  0.00  0.00    +0.035 C 
ATOM     14  C17 UNL     1      18.424  54.939  -8.176  0.00  0.00    -0.030 C 
ATOM     15  C18 UNL     1      17.709  56.044  -8.409  0.00  0.00    -0.030 C 
ATOM     16  C19 UNL     1      17.840  57.298  -7.582  0.00  0.00    +0.032 C 
ATOM     17  C20 UNL     1      19.065  57.346  -6.618  0.00  0.00    +0.055 C 
BRANCH   9  18
ATOM     18  C7  UNL     1      20.588  57.967  -9.761  0.00  0.00    +0.099 C 
ATOM     19  C8  UNL     1      21.576  57.751 -10.938  0.00  0.00    +0.022 C 
ATOM     20  C9  UNL     1      22.541  58.920 -11.220  0.00  0.00    +0.002 C 
ATOM     21  C10 UNL     1      21.856  60.078 -11.963  0.00  0.00    +0.000 C 
ATOM     22  C11 UNL     1      21.173  61.116 -11.053  0.00  0.00    +0.000 C 
ATOM     23  C12 UNL     1      20.554  60.571  -9.756  0.00  0.00    +0.002 C 
ATOM     24  C13 UNL     1      19.754  59.268  -9.947  0.00  0.00    +0.022 C 
ENDBRANCH   9  18
ENDBRANCH   4   7
BRANCH   1  26
ATOM     25  C1  UNL     1      16.919  63.557  -3.175  0.00  0.00    +0.253 C 
ATOM     26  O1  UNL     1      18.252  63.168  -3.489  0.00  0.00    -0.468 OA
ENDBRANCH   1  26
BRANCH   6  27
ATOM     27  O3  UNL     1      20.452  61.695  -2.808  0.00  0.00    -0.472 OA
BRANCH  27  28
ATOM     28  C23 UNL     1      21.131  60.799  -1.922  0.00  0.00    +0.206 C 
BRANCH  28  29
ATOM     29  C24 UNL     1      21.762  61.555  -0.746  0.00  0.00    +0.051 C 
BRANCH  29  30
ATOM     30  C25 UNL     1      22.599  62.749  -1.235  0.00  0.00    +0.051 C 
BRANCH  30  31
ATOM     31  C26 UNL     1      21.945  64.104  -0.921  0.00  0.00    +0.206 C 
BRANCH  31  32
ATOM     32  O4  UNL     1      20.800  64.357  -1.738  0.00  0.00    -0.475 OA
BRANCH  32  33
ATOM     33  C27 UNL     1      20.643  65.434  -2.626  0.00  0.00    +0.139 A 
ATOM     34  C28 UNL     1      19.592  66.326  -2.392  0.00  0.00    +0.037 A 
ATOM     35  C29 UNL     1      19.422  67.454  -3.198  0.00  0.00    +0.006 A 
ATOM     36  C30 UNL     1      20.305  67.709  -4.257  0.00  0.00    +0.040 A 
ATOM     37  C32 UNL     1      21.339  66.796  -4.515  0.00  0.00    +0.006 A 
ATOM     38  C33 UNL     1      21.498  65.658  -3.719  0.00  0.00    +0.037 A 
BRANCH  36  39
ATOM     39  C31 UNL     1      20.180  68.938  -5.071  0.00  0.00    +0.208 A 
ATOM     40  N3  UNL     1      19.277  69.910  -4.840  0.00  0.00    -0.106 NA
ATOM     41  N4  UNL     1      19.484  70.788  -5.808  0.00  0.00    -0.021 NA
ATOM     42  N5  UNL     1      20.467  70.397  -6.599  0.00  0.00    -0.021 NA
ATOM     43  N6  UNL     1      20.917  69.236  -6.158  0.00  0.00    -0.106 NA
ENDBRANCH  36  39
ENDBRANCH  32  33
ENDBRANCH  31  32
ENDBRANCH  30  31
ENDBRANCH  29  30
ENDBRANCH  28  29
ENDBRANCH  27  28
ENDBRANCH   6  27
TORSDOF 11
ENDMDL
