MODEL 1
REMARK VINA RESULT:     -10.2      0.000      0.000
REMARK  Name = ./threeLigTest/pdb/l1c4.pdb
REMARK  11 active torsions:
REMARK  status: ('A' for Active; 'I' for Inactive)
REMARK    1  A    between atoms: O1_2  and  C2_3
REMARK    2  A    between atoms: C5_6  and  C6_7
REMARK    3  A    between atoms: N2_9  and  C7_10
REMARK    4  A    between atoms: C22_26  and  O3_27
REMARK    5  A    between atoms: O3_27  and  C23_28
REMARK    6  A    between atoms: C23_28  and  C24_29
REMARK    7  A    between atoms: C24_29  and  C25_30
REMARK    8  A    between atoms: C25_30  and  C26_31
REMARK    9  A    between atoms: C26_31  and  O4_32
REMARK   10  A    between atoms: O4_32  and  C27_33
REMARK   11  A    between atoms: C30_36  and  C31_37
REMARK                            x       y       z     vdW  Elec       q    Type
REMARK                         _______ _______ _______ _____ _____    ______ ____
ROOT
ATOM      1  C2  UNL     1      19.389  57.322  -2.691  0.00  0.00    +0.172 A 
ATOM      2  C3  UNL     1      19.196  56.034  -3.227  0.00  0.00    +0.040 A 
ATOM      3  C4  UNL     1      19.302  55.818  -4.601  0.00  0.00    +0.005 A 
ATOM      4  C5  UNL     1      19.598  56.882  -5.463  0.00  0.00    +0.018 A 
ATOM      5  C21 UNL     1      19.817  58.161  -4.931  0.00  0.00    +0.041 A 
ATOM      6  C22 UNL     1      19.714  58.388  -3.546  0.00  0.00    +0.172 A 
ENDROOT
BRANCH   4   7
ATOM      7  C6  UNL     1      19.728  56.658  -6.917  0.00  0.00    +0.077 C 
ATOM      8  N1  UNL     1      20.804  57.101  -7.500  0.00  0.00    -0.180 NA
ATOM      9  N2  UNL     1      21.174  56.887  -8.853  0.00  0.00    -0.183 N 
ATOM     10  C14 UNL     1      20.046  56.537  -9.702  0.00  0.00    +0.244 C 
ATOM     11  O2  UNL     1      20.239  56.301 -10.889  0.00  0.00    -0.273 OA
ATOM     12  C15 UNL     1      18.644  56.470  -9.143  0.00  0.00    +0.089 C 
ATOM     13  C16 UNL     1      17.701  55.612 -10.014  0.00  0.00    +0.035 C 
ATOM     14  C17 UNL     1      16.367  55.376  -9.348  0.00  0.00    -0.030 C 
ATOM     15  C18 UNL     1      16.197  55.474  -8.018  0.00  0.00    -0.030 C 
ATOM     16  C19 UNL     1      17.267  56.007  -7.099  0.00  0.00    +0.032 C 
ATOM     17  C20 UNL     1      18.685  55.903  -7.713  0.00  0.00    +0.055 C 
BRANCH   9  18
ATOM     18  C7  UNL     1      21.894  58.091  -9.352  0.00  0.00    +0.099 C 
ATOM     19  C8  UNL     1      21.298  59.398  -8.745  0.00  0.00    +0.022 C 
ATOM     20  C9  UNL     1      20.202  60.078  -9.587  0.00  0.00    +0.002 C 
ATOM     21  C10 UNL     1      20.777  61.066 -10.611  0.00  0.00    +0.000 C 
ATOM     22  C11 UNL     1      21.385  60.383 -11.841  0.00  0.00    +0.000 C 
ATOM     23  C12 UNL     1      22.529  59.416 -11.498  0.00  0.00    +0.002 C 
ATOM     24  C13 UNL     1      22.015  58.092 -10.907  0.00  0.00    +0.022 C 
ENDBRANCH   9  18
ENDBRANCH   4   7
BRANCH   1  26
ATOM     25  C1  UNL     1      18.796  56.646  -0.356  0.00  0.00    +0.253 C 
ATOM     26  O1  UNL     1      19.277  57.579  -1.315  0.00  0.00    -0.468 OA
ENDBRANCH   1  26
BRANCH   6  27
ATOM     27  O3  UNL     1      19.929  59.655  -2.978  0.00  0.00    -0.472 OA
BRANCH  27  28
ATOM     28  C23 UNL     1      19.911  60.897  -3.687  0.00  0.00    +0.206 C 
BRANCH  28  29
ATOM     29  C24 UNL     1      21.246  61.641  -3.550  0.00  0.00    +0.051 C 
BRANCH  29  30
ATOM     30  C25 UNL     1      21.641  61.850  -2.083  0.00  0.00    +0.051 C 
BRANCH  30  31
ATOM     31  C26 UNL     1      21.738  63.342  -1.735  0.00  0.00    +0.206 C 
BRANCH  31  32
ATOM     32  O4  UNL     1      20.521  64.012  -2.069  0.00  0.00    -0.475 OA
BRANCH  32  33
ATOM     33  C27 UNL     1      20.441  65.250  -2.729  0.00  0.00    +0.139 A 
ATOM     34  C28 UNL     1      21.377  65.531  -3.727  0.00  0.00    +0.037 A 
ATOM     35  C29 UNL     1      21.299  66.716  -4.465  0.00  0.00    +0.006 A 
ATOM     36  C30 UNL     1      20.281  67.651  -4.209  0.00  0.00    +0.040 A 
ATOM     37  C32 UNL     1      19.369  67.392  -3.171  0.00  0.00    +0.006 A 
ATOM     38  C33 UNL     1      19.449  66.206  -2.437  0.00  0.00    +0.037 A 
BRANCH  36  39
ATOM     39  C31 UNL     1      20.173  68.874  -5.038  0.00  0.00    +0.208 A 
ATOM     40  N3  UNL     1      19.316  69.884  -4.794  0.00  0.00    -0.106 NA
ATOM     41  N4  UNL     1      19.566  70.785  -5.734  0.00  0.00    -0.021 NA
ATOM     42  N5  UNL     1      20.540  70.356  -6.524  0.00  0.00    -0.021 NA
ATOM     43  N6  UNL     1      20.933  69.166  -6.110  0.00  0.00    -0.106 NA
ENDBRANCH  36  39
ENDBRANCH  32  33
ENDBRANCH  31  32
ENDBRANCH  30  31
ENDBRANCH  29  30
ENDBRANCH  28  29
ENDBRANCH  27  28
ENDBRANCH   6  27
TORSDOF 11
ENDMDL
MODEL 2
REMARK VINA RESULT:      -9.2      3.392      9.249
REMARK  Name = ./threeLigTest/pdb/l1c4.pdb
REMARK  11 active torsions:
REMARK  status: ('A' for Active; 'I' for Inactive)
REMARK    1  A    between atoms: O1_2  and  C2_3
REMARK    2  A    between atoms: C5_6  and  C6_7
REMARK    3  A    between atoms: N2_9  and  C7_10
REMARK    4  A    between atoms: C22_26  and  O3_27
REMARK    5  A    between atoms: O3_27  and  C23_28
REMARK    6  A    between atoms: C23_28  and  C24_29
REMARK    7  A    between atoms: C24_29  and  C25_30
REMARK    8  A    between atoms: C25_30  and  C26_31
REMARK    9  A    between atoms: C26_31  and  O4_32
REMARK   10  A    between atoms: O4_32  and  C27_33
REMARK   11  A    between atoms: C30_36  and  C31_37
REMARK                            x       y       z     vdW  Elec       q    Type
REMARK                         _______ _______ _______ _____ _____    ______ ____
ROOT
ATOM      1  C2  UNL     1      18.477  57.898  -6.655  0.00  0.00    +0.172 A 
ATOM      2  C3  UNL     1      18.316  59.168  -7.242  0.00  0.00    +0.040 A 
ATOM      3  C4  UNL     1      18.637  60.322  -6.527  0.00  0.00    +0.005 A 
ATOM      4  C5  UNL     1      19.120  60.230  -5.215  0.00  0.00    +0.018 A 
ATOM      5  C21 UNL     1      19.308  58.966  -4.636  0.00  0.00    +0.041 A 
ATOM      6  C22 UNL     1      18.988  57.796  -5.351  0.00  0.00    +0.172 A 
ENDROOT
BRANCH   4   7
ATOM      7  C6  UNL     1      19.478  61.446  -4.457  0.00  0.00    +0.077 C 
ATOM      8  N1  UNL     1      20.683  61.519  -3.971  0.00  0.00    -0.180 NA
ATOM      9  N2  UNL     1      21.258  62.641  -3.321  0.00  0.00    -0.183 N 
ATOM     10  C14 UNL     1      20.265  63.565  -2.796  0.00  0.00    +0.244 C 
ATOM     11  O2  UNL     1      20.636  64.589  -2.234  0.00  0.00    -0.273 OA
ATOM     12  C15 UNL     1      18.788  63.275  -2.926  0.00  0.00    +0.089 C 
ATOM     13  C16 UNL     1      17.922  64.546  -2.796  0.00  0.00    +0.035 C 
ATOM     14  C17 UNL     1      16.474  64.287  -3.134  0.00  0.00    -0.030 C 
ATOM     15  C18 UNL     1      16.085  63.248  -3.895  0.00  0.00    -0.030 C 
ATOM     16  C19 UNL     1      17.030  62.154  -4.319  0.00  0.00    +0.032 C 
ATOM     17  C20 UNL     1      18.512  62.599  -4.281  0.00  0.00    +0.055 C 
BRANCH   9  18
ATOM     18  C7  UNL     1      22.186  62.160  -2.260  0.00  0.00    +0.099 C 
ATOM     19  C8  UNL     1      21.764  60.753  -1.735  0.00  0.00    +0.022 C 
ATOM     20  C9  UNL     1      20.841  60.758  -0.501  0.00  0.00    +0.002 C 
ATOM     21  C10 UNL     1      21.625  60.783   0.818  0.00  0.00    +0.000 C 
ATOM     22  C11 UNL     1      22.195  62.164   1.161  0.00  0.00    +0.000 C 
ATOM     23  C12 UNL     1      23.151  62.711   0.091  0.00  0.00    +0.002 C 
ATOM     24  C13 UNL     1      22.403  63.231  -1.148  0.00  0.00    +0.022 C 
ENDBRANCH   9  18
ENDBRANCH   4   7
BRANCH   1  26
ATOM     25  C1  UNL     1      17.229  56.636  -8.419  0.00  0.00    +0.253 C 
ATOM     26  O1  UNL     1      18.152  56.716  -7.340  0.00  0.00    -0.468 OA
ENDBRANCH   1  26
BRANCH   6  27
ATOM     27  O3  UNL     1      19.164  56.514  -4.803  0.00  0.00    -0.472 OA
BRANCH  27  28
ATOM     28  C23 UNL     1      20.351  55.722  -4.906  0.00  0.00    +0.206 C 
BRANCH  28  29
ATOM     29  C24 UNL     1      20.020  54.229  -5.036  0.00  0.00    +0.051 C 
BRANCH  29  30
ATOM     30  C25 UNL     1      20.719  53.589  -6.244  0.00  0.00    +0.051 C 
BRANCH  30  31
ATOM     31  C26 UNL     1      20.211  54.183  -7.565  0.00  0.00    +0.206 C 
BRANCH  31  32
ATOM     32  O4  UNL     1      21.308  54.586  -8.386  0.00  0.00    -0.475 OA
BRANCH  32  33
ATOM     33  C27 UNL     1      21.432  55.843  -9.002  0.00  0.00    +0.139 A 
ATOM     34  C28 UNL     1      21.504  55.894 -10.396  0.00  0.00    +0.037 A 
ATOM     35  C29 UNL     1      21.554  57.122 -11.063  0.00  0.00    +0.006 A 
ATOM     36  C30 UNL     1      21.542  58.327 -10.341  0.00  0.00    +0.040 A 
ATOM     37  C32 UNL     1      21.520  58.276  -8.936  0.00  0.00    +0.006 A 
ATOM     38  C33 UNL     1      21.468  57.047  -8.273  0.00  0.00    +0.037 A 
BRANCH  36  39
ATOM     39  C31 UNL     1      21.534  59.623 -11.061  0.00  0.00    +0.208 A 
ATOM     40  N3  UNL     1      21.988  59.795 -12.318  0.00  0.00    -0.106 NA
ATOM     41  N4  UNL     1      21.765  61.073 -12.593  0.00  0.00    -0.021 NA
ATOM     42  N5  UNL     1      21.193  61.666 -11.555  0.00  0.00    -0.021 NA
ATOM     43  N6  UNL     1      21.041  60.781 -10.588  0.00  0.00    -0.106 NA
ENDBRANCH  36  39
ENDBRANCH  32  33
ENDBRANCH  31  32
ENDBRANCH  30  31
ENDBRANCH  29  30
ENDBRANCH  28  29
ENDBRANCH  27  28
ENDBRANCH   6  27
TORSDOF 11
ENDMDL
MODEL 3
REMARK VINA RESULT:      -9.2      3.796      9.557
REMARK  Name = ./threeLigTest/pdb/l1c4.pdb
REMARK  11 active torsions:
REMARK  status: ('A' for Active; 'I' for Inactive)
REMARK    1  A    between atoms: O1_2  and  C2_3
REMARK    2  A    between atoms: C5_6  and  C6_7
REMARK    3  A    between atoms: N2_9  and  C7_10
REMARK    4  A    between atoms: C22_26  and  O3_27
REMARK    5  A    between atoms: O3_27  and  C23_28
REMARK    6  A    between atoms: C23_28  and  C24_29
REMARK    7  A    between atoms: C24_29  and  C25_30
REMARK    8  A    between atoms: C25_30  and  C26_31
REMARK    9  A    between atoms: C26_31  and  O4_32
REMARK   10  A    between atoms: O4_32  and  C27_33
REMARK   11  A    between atoms: C30_36  and  C31_37
REMARK                            x       y       z     vdW  Elec       q    Type
REMARK                         _______ _______ _______ _____ _____    ______ ____
ROOT
ATOM      1  C2  UNL     1      18.402  58.832  -6.698  0.00  0.00    +0.172 A 
ATOM      2  C3  UNL     1      18.711  60.194  -6.880  0.00  0.00    +0.040 A 
ATOM      3  C4  UNL     1      19.403  60.899  -5.895  0.00  0.00    +0.005 A 
ATOM      4  C5  UNL     1      19.795  60.260  -4.712  0.00  0.00    +0.018 A 
ATOM      5  C21 UNL     1      19.513  58.897  -4.538  0.00  0.00    +0.041 A 
ATOM      6  C22 UNL     1      18.817  58.177  -5.527  0.00  0.00    +0.172 A 
ENDROOT
BRANCH   4   7
ATOM      7  C6  UNL     1      20.542  60.995  -3.671  0.00  0.00    +0.077 C 
ATOM      8  N1  UNL     1      21.152  60.293  -2.760  0.00  0.00    -0.180 NA
ATOM      9  N2  UNL     1      22.013  60.796  -1.751  0.00  0.00    -0.183 N 
ATOM     10  C14 UNL     1      21.812  62.212  -1.485  0.00  0.00    +0.244 C 
ATOM     11  O2  UNL     1      22.515  62.772  -0.652  0.00  0.00    -0.273 OA
ATOM     12  C15 UNL     1      20.747  62.996  -2.216  0.00  0.00    +0.089 C 
ATOM     13  C16 UNL     1      21.015  64.516  -2.199  0.00  0.00    +0.035 C 
ATOM     14  C17 UNL     1      20.069  65.272  -3.100  0.00  0.00    -0.030 C 
ATOM     15  C18 UNL     1      19.424  64.685  -4.124  0.00  0.00    -0.030 C 
ATOM     16  C19 UNL     1      19.440  63.195  -4.347  0.00  0.00    +0.032 C 
ATOM     17  C20 UNL     1      20.650  62.505  -3.671  0.00  0.00    +0.055 C 
BRANCH   9  18
ATOM     18  C7  UNL     1      21.849  59.971  -0.522  0.00  0.00    +0.099 C 
ATOM     19  C8  UNL     1      21.561  58.481  -0.877  0.00  0.00    +0.022 C 
ATOM     20  C9  UNL     1      20.070  58.099  -0.965  0.00  0.00    +0.002 C 
ATOM     21  C10 UNL     1      19.493  57.669   0.391  0.00  0.00    +0.000 C 
ATOM     22  C11 UNL     1      19.201  58.846   1.328  0.00  0.00    +0.000 C 
ATOM     23  C12 UNL     1      20.442  59.694   1.647  0.00  0.00    +0.002 C 
ATOM     24  C13 UNL     1      20.837  60.611   0.477  0.00  0.00    +0.022 C 
ENDBRANCH   9  18
ENDBRANCH   4   7
BRANCH   1  26
ATOM     25  C1  UNL     1      18.022  58.052  -9.045  0.00  0.00    +0.253 C 
ATOM     26  O1  UNL     1      17.696  58.095  -7.662  0.00  0.00    -0.468 OA
ENDBRANCH   1  26
BRANCH   6  27
ATOM     27  O3  UNL     1      18.519  56.811  -5.387  0.00  0.00    -0.472 OA
BRANCH  27  28
ATOM     28  C23 UNL     1      19.391  55.823  -4.833  0.00  0.00    +0.206 C 
BRANCH  28  29
ATOM     29  C24 UNL     1      19.303  54.499  -5.605  0.00  0.00    +0.051 C 
BRANCH  29  30
ATOM     30  C25 UNL     1      20.663  54.073  -6.173  0.00  0.00    +0.051 C 
BRANCH  30  31
ATOM     31  C26 UNL     1      20.607  53.906  -7.698  0.00  0.00    +0.206 C 
BRANCH  31  32
ATOM     32  O4  UNL     1      21.687  54.607  -8.318  0.00  0.00    -0.475 OA
BRANCH  32  33
ATOM     33  C27 UNL     1      21.558  55.809  -9.034  0.00  0.00    +0.139 A 
ATOM     34  C28 UNL     1      21.569  57.011  -8.320  0.00  0.00    +0.037 A 
ATOM     35  C29 UNL     1      21.517  58.237  -8.990  0.00  0.00    +0.006 A 
ATOM     36  C30 UNL     1      21.443  58.283 -10.392  0.00  0.00    +0.040 A 
ATOM     37  C32 UNL     1      21.380  57.074 -11.107  0.00  0.00    +0.006 A 
ATOM     38  C33 UNL     1      21.434  55.850 -10.436  0.00  0.00    +0.037 A 
BRANCH  36  39
ATOM     39  C31 UNL     1      21.450  59.589 -11.092  0.00  0.00    +0.208 A 
ATOM     40  N3  UNL     1      20.830  60.697 -10.640  0.00  0.00    -0.106 NA
ATOM     41  N4  UNL     1      21.113  61.639 -11.529  0.00  0.00    -0.021 NA
ATOM     42  N5  UNL     1      21.880  61.140 -12.488  0.00  0.00    -0.021 NA
ATOM     43  N6  UNL     1      22.101  59.863 -12.237  0.00  0.00    -0.106 NA
ENDBRANCH  36  39
ENDBRANCH  32  33
ENDBRANCH  31  32
ENDBRANCH  30  31
ENDBRANCH  29  30
ENDBRANCH  28  29
ENDBRANCH  27  28
ENDBRANCH   6  27
TORSDOF 11
ENDMDL
MODEL 4
REMARK VINA RESULT:      -7.6      4.118      9.853
REMARK  Name = ./threeLigTest/pdb/l1c4.pdb
REMARK  11 active torsions:
REMARK  status: ('A' for Active; 'I' for Inactive)
REMARK    1  A    between atoms: O1_2  and  C2_3
REMARK    2  A    between atoms: C5_6  and  C6_7
REMARK    3  A    between atoms: N2_9  and  C7_10
REMARK    4  A    between atoms: C22_26  and  O3_27
REMARK    5  A    between atoms: O3_27  and  C23_28
REMARK    6  A    between atoms: C23_28  and  C24_29
REMARK    7  A    between atoms: C24_29  and  C25_30
REMARK    8  A    between atoms: C25_30  and  C26_31
REMARK    9  A    between atoms: C26_31  and  O4_32
REMARK   10  A    between atoms: O4_32  and  C27_33
REMARK   11  A    between atoms: C30_36  and  C31_37
REMARK                            x       y       z     vdW  Elec       q    Type
REMARK                         _______ _______ _______ _____ _____    ______ ____
ROOT
ATOM      1  C2  UNL     1      20.070  59.880  -8.863  0.00  0.00    +0.172 A 
ATOM      2  C3  UNL     1      20.807  60.697  -7.984  0.00  0.00    +0.040 A 
ATOM      3  C4  UNL     1      20.768  60.469  -6.608  0.00  0.00    +0.005 A 
ATOM      4  C5  UNL     1      19.990  59.427  -6.086  0.00  0.00    +0.018 A 
ATOM      5  C21 UNL     1      19.276  58.595  -6.960  0.00  0.00    +0.041 A 
ATOM      6  C22 UNL     1      19.311  58.815  -8.350  0.00  0.00    +0.172 A 
ENDROOT
BRANCH   4   7
ATOM      7  C6  UNL     1      19.956  59.169  -4.632  0.00  0.00    +0.077 C 
ATOM      8  N1  UNL     1      20.424  60.096  -3.847  0.00  0.00    -0.180 NA
ATOM      9  N2  UNL     1      20.375  60.095  -2.429  0.00  0.00    -0.183 N 
ATOM     10  C14 UNL     1      20.192  58.767  -1.865  0.00  0.00    +0.244 C 
ATOM     11  O2  UNL     1      20.107  58.637  -0.650  0.00  0.00    -0.273 OA
ATOM     12  C15 UNL     1      20.113  57.550  -2.757  0.00  0.00    +0.089 C 
ATOM     13  C16 UNL     1      19.421  56.355  -2.066  0.00  0.00    +0.035 C 
ATOM     14  C17 UNL     1      19.158  55.218  -3.023  0.00  0.00    -0.030 C 
ATOM     15  C18 UNL     1      19.087  55.395  -4.354  0.00  0.00    -0.030 C 
ATOM     16  C19 UNL     1      19.444  56.700  -5.019  0.00  0.00    +0.032 C 
ATOM     17  C20 UNL     1      19.360  57.905  -4.051  0.00  0.00    +0.055 C 
BRANCH   9  18
ATOM     18  C7  UNL     1      21.602  60.758  -1.904  0.00  0.00    +0.099 C 
ATOM     19  C8  UNL     1      21.926  60.281  -0.455  0.00  0.00    +0.022 C 
ATOM     20  C9  UNL     1      21.340  61.151   0.673  0.00  0.00    +0.002 C 
ATOM     21  C10 UNL     1      22.272  62.304   1.070  0.00  0.00    +0.000 C 
ATOM     22  C11 UNL     1      22.254  63.470   0.076  0.00  0.00    +0.000 C 
ATOM     23  C12 UNL     1      22.665  63.065  -1.348  0.00  0.00    +0.002 C 
ATOM     24  C13 UNL     1      21.548  62.306  -2.083  0.00  0.00    +0.022 C 
ENDBRANCH   9  18
ENDBRANCH   4   7
BRANCH   1  26
ATOM     25  C1  UNL     1      20.774  61.137 -10.909  0.00  0.00    +0.253 C 
ATOM     26  O1  UNL     1      20.075  60.088 -10.252  0.00  0.00    -0.468 OA
ENDBRANCH   1  26
BRANCH   6  27
ATOM     27  O3  UNL     1      18.609  58.001  -9.254  0.00  0.00    -0.472 OA
BRANCH  27  28
ATOM     28  C23 UNL     1      17.294  57.476  -9.051  0.00  0.00    +0.206 C 
BRANCH  28  29
ATOM     29  C24 UNL     1      17.217  56.634  -7.770  0.00  0.00    +0.051 C 
BRANCH  29  30
ATOM     30  C25 UNL     1      16.593  55.256  -8.024  0.00  0.00    +0.051 C 
BRANCH  30  31
ATOM     31  C26 UNL     1      17.258  54.172  -7.164  0.00  0.00    +0.206 C 
BRANCH  31  32
ATOM     32  O4  UNL     1      18.337  53.563  -7.875  0.00  0.00    -0.475 OA
BRANCH  32  33
ATOM     33  C27 UNL     1      19.299  54.259  -8.626  0.00  0.00    +0.139 A 
ATOM     34  C28 UNL     1      19.176  54.269 -10.017  0.00  0.00    +0.037 A 
ATOM     35  C29 UNL     1      20.064  55.007 -10.806  0.00  0.00    +0.006 A 
ATOM     36  C30 UNL     1      21.103  55.743 -10.213  0.00  0.00    +0.040 A 
ATOM     37  C32 UNL     1      21.258  55.694  -8.817  0.00  0.00    +0.006 A 
ATOM     38  C33 UNL     1      20.369  54.957  -8.031  0.00  0.00    +0.037 A 
BRANCH  36  39
ATOM     39  C31 UNL     1      22.000  56.570 -11.056  0.00  0.00    +0.208 A 
ATOM     40  N3  UNL     1      23.180  56.147 -11.550  0.00  0.00    -0.106 NA
ATOM     41  N4  UNL     1      23.637  57.162 -12.270  0.00  0.00    -0.021 NA
ATOM     42  N5  UNL     1      22.775  58.169 -12.230  0.00  0.00    -0.021 NA
ATOM     43  N6  UNL     1      21.748  57.822 -11.477  0.00  0.00    -0.106 NA
ENDBRANCH  36  39
ENDBRANCH  32  33
ENDBRANCH  31  32
ENDBRANCH  30  31
ENDBRANCH  29  30
ENDBRANCH  28  29
ENDBRANCH  27  28
ENDBRANCH   6  27
TORSDOF 11
ENDMDL
