MODEL 1
REMARK VINA RESULT:      -8.9      0.000      0.000
REMARK  Name = ./threeLigTest/pdb/l2c1.pdb
REMARK  7 active torsions:
REMARK  status: ('A' for Active; 'I' for Inactive)
REMARK    1  A    between atoms: N4_8  and  C5_9
REMARK    2  A    between atoms: C6_11  and  C7_12
REMARK    3  A    between atoms: C7_12  and  S1_13
REMARK    4  A    between atoms: S1_13  and  C8_14
REMARK    5  A    between atoms: C8_14  and  C9_15
REMARK    6  A    between atoms: C9_15  and  C10_16
REMARK    7  A    between atoms: C10_16  and  C11_17
REMARK                            x       y       z     vdW  Elec       q    Type
REMARK                         _______ _______ _______ _____ _____    ______ ____
ROOT
ATOM      1  C5  UNL     1      19.654  60.061  -7.768  0.00  0.00    +0.241 C 
ATOM      2  O1  UNL     1      20.446  60.946  -7.012  0.00  0.00    -0.332 OA
ATOM      3  C6  UNL     1      19.867  61.055  -5.728  0.00  0.00    +0.161 C 
ATOM      4  C12 UNL     1      18.649  60.124  -5.636  0.00  0.00    +0.214 C 
ATOM      5  O4  UNL     1      17.471  60.880  -5.781  0.00  0.00    -0.218 OA
ATOM      6  C13 UNL     1      18.848  59.198  -6.814  0.00  0.00    +0.234 C 
ATOM      7  O5  UNL     1      17.635  58.801  -7.399  0.00  0.00    -0.216 OA
ENDROOT
BRANCH   1  15
ATOM      8  N1  UNL     1      22.954  57.557 -12.072  0.00  0.00    -0.125 NA
ATOM      9  C1  UNL     1      22.292  58.561 -11.590  0.00  0.00    +0.206 A 
ATOM     10  C2  UNL     1      21.695  58.489 -10.338  0.00  0.00    +0.154 A 
ATOM     11  C3  UNL     1      21.001  59.545  -9.854  0.00  0.00    +0.169 A 
ATOM     12  N2  UNL     1      20.865  60.702 -10.545  0.00  0.00    -0.205 NA
ATOM     13  C4  UNL     1      21.450  60.789 -11.777  0.00  0.00    +0.202 A 
ATOM     14  N3  UNL     1      22.153  59.729 -12.294  0.00  0.00    -0.202 NA
ATOM     15  N4  UNL     1      20.504  59.247  -8.640  0.00  0.00    -0.269 N 
ATOM     16  C14 UNL     1      20.928  57.975  -8.417  0.00  0.00    +0.182 A 
ATOM     17  N6  UNL     1      21.665  57.484  -9.446  0.00  0.00    -0.219 NA
ENDBRANCH   1  15
BRANCH   3  18
ATOM     18  C7  UNL     1      20.918  60.720  -4.658  0.00  0.00    +0.090 C 
BRANCH  18  19
ATOM     19  S1  UNL     1      20.780  61.851  -3.223  0.00  0.00    -0.138 S 
BRANCH  19  20
ATOM     20  C8  UNL     1      20.212  63.310  -4.161  0.00  0.00    +0.060 C 
BRANCH  20  21
ATOM     21  C9  UNL     1      19.299  64.173  -3.286  0.00  0.00    +0.042 C 
BRANCH  21  22
ATOM     22  C10 UNL     1      19.396  65.672  -3.633  0.00  0.00    +0.195 C 
ATOM     23  N5  UNL     1      20.710  66.209  -3.269  0.00  0.00    -0.121 NA
BRANCH  22  24
ATOM     24  C11 UNL     1      18.320  66.425  -2.899  0.00  0.00    +0.382 C 
ATOM     25  O2  UNL     1      17.116  66.065  -2.987  0.00  0.00    -0.244 OA
ATOM     26  O3  UNL     1      18.648  67.544  -2.145  0.00  0.00    -0.244 OA
ENDBRANCH  22  24
ENDBRANCH  21  22
ENDBRANCH  20  21
ENDBRANCH  19  20
ENDBRANCH  18  19
ENDBRANCH   3  18
TORSDOF 7
ENDMDL
MODEL 2
REMARK VINA RESULT:      -7.8      3.747      7.872
REMARK  Name = ./threeLigTest/pdb/l2c1.pdb
REMARK  7 active torsions:
REMARK  status: ('A' for Active; 'I' for Inactive)
REMARK    1  A    between atoms: N4_8  and  C5_9
REMARK    2  A    between atoms: C6_11  and  C7_12
REMARK    3  A    between atoms: C7_12  and  S1_13
REMARK    4  A    between atoms: S1_13  and  C8_14
REMARK    5  A    between atoms: C8_14  and  C9_15
REMARK    6  A    between atoms: C9_15  and  C10_16
REMARK    7  A    between atoms: C10_16  and  C11_17
REMARK                            x       y       z     vdW  Elec       q    Type
REMARK                         _______ _______ _______ _____ _____    ______ ____
ROOT
ATOM      1  C5  UNL     1      19.099  58.817  -5.331  0.00  0.00    +0.241 C 
ATOM      2  O1  UNL     1      19.844  57.645  -5.561  0.00  0.00    -0.332 OA
ATOM      3  C6  UNL     1      19.475  57.139  -6.828  0.00  0.00    +0.161 C 
ATOM      4  C12 UNL     1      18.464  58.092  -7.483  0.00  0.00    +0.214 C 
ATOM      5  O4  UNL     1      17.168  57.561  -7.350  0.00  0.00    -0.218 OA
ATOM      6  C13 UNL     1      18.619  59.355  -6.668  0.00  0.00    +0.234 C 
ATOM      7  O5  UNL     1      17.411  60.056  -6.522  0.00  0.00    -0.216 OA
ENDROOT
BRANCH   1  15
ATOM      8  N1  UNL     1      22.283  62.164  -1.544  0.00  0.00    -0.125 NA
ATOM      9  C1  UNL     1      21.650  61.071  -1.835  0.00  0.00    +0.206 A 
ATOM     10  C2  UNL     1      21.070  60.892  -3.083  0.00  0.00    +0.154 A 
ATOM     11  C3  UNL     1      20.406  59.748  -3.367  0.00  0.00    +0.169 A 
ATOM     12  N2  UNL     1      20.286  58.738  -2.472  0.00  0.00    -0.205 NA
ATOM     13  C4  UNL     1      20.855  58.898  -1.241  0.00  0.00    +0.202 A 
ATOM     14  N3  UNL     1      21.527  60.053  -0.925  0.00  0.00    -0.202 NA
ATOM     15  N4  UNL     1      19.919  59.800  -4.620  0.00  0.00    -0.269 N 
ATOM     16  C14 UNL     1      20.318  61.018  -5.074  0.00  0.00    +0.182 A 
ATOM     17  N6  UNL     1      21.029  61.712  -4.149  0.00  0.00    -0.219 NA
ENDBRANCH   1  15
BRANCH   3  18
ATOM     18  C7  UNL     1      20.730  56.960  -7.697  0.00  0.00    +0.090 C 
BRANCH  18  19
ATOM     19  S1  UNL     1      20.287  56.798  -9.468  0.00  0.00    -0.138 S 
BRANCH  19  20
ATOM     20  C8  UNL     1      21.778  57.616 -10.131  0.00  0.00    +0.060 C 
BRANCH  20  21
ATOM     21  C9  UNL     1      21.382  58.654 -11.183  0.00  0.00    +0.042 C 
BRANCH  21  22
ATOM     22  C10 UNL     1      21.245  60.071 -10.591  0.00  0.00    +0.195 C 
ATOM     23  N5  UNL     1      19.881  60.306 -10.110  0.00  0.00    -0.121 NA
BRANCH  22  24
ATOM     24  C11 UNL     1      21.594  61.088 -11.642  0.00  0.00    +0.382 C 
ATOM     25  O2  UNL     1      21.888  62.269 -11.314  0.00  0.00    -0.244 OA
ATOM     26  O3  UNL     1      21.561  60.737 -12.985  0.00  0.00    -0.244 OA
ENDBRANCH  22  24
ENDBRANCH  21  22
ENDBRANCH  20  21
ENDBRANCH  19  20
ENDBRANCH  18  19
ENDBRANCH   3  18
TORSDOF 7
ENDMDL
MODEL 3
REMARK VINA RESULT:      -7.2      3.122      8.713
REMARK  Name = ./threeLigTest/pdb/l2c1.pdb
REMARK  7 active torsions:
REMARK  status: ('A' for Active; 'I' for Inactive)
REMARK    1  A    between atoms: N4_8  and  C5_9
REMARK    2  A    between atoms: C6_11  and  C7_12
REMARK    3  A    between atoms: C7_12  and  S1_13
REMARK    4  A    between atoms: S1_13  and  C8_14
REMARK    5  A    between atoms: C8_14  and  C9_15
REMARK    6  A    between atoms: C9_15  and  C10_16
REMARK    7  A    between atoms: C10_16  and  C11_17
REMARK                            x       y       z     vdW  Elec       q    Type
REMARK                         _______ _______ _______ _____ _____    ______ ____
ROOT
ATOM      1  C5  UNL     1      19.270  60.378  -4.927  0.00  0.00    +0.241 C 
ATOM      2  O1  UNL     1      20.270  59.499  -5.386  0.00  0.00    -0.332 OA
ATOM      3  C6  UNL     1      19.845  58.969  -6.625  0.00  0.00    +0.161 C 
ATOM      4  C12 UNL     1      18.502  59.602  -7.016  0.00  0.00    +0.214 C 
ATOM      5  O4  UNL     1      17.460  58.698  -6.739  0.00  0.00    -0.218 OA
ATOM      6  C13 UNL     1      18.426  60.811  -6.112  0.00  0.00    +0.234 C 
ATOM      7  O5  UNL     1      17.113  61.105  -5.712  0.00  0.00    -0.216 OA
ENDROOT
BRANCH   1  15
ATOM      8  N1  UNL     1      22.008  64.329  -1.380  0.00  0.00    -0.125 NA
ATOM      9  C1  UNL     1      21.692  63.111  -1.689  0.00  0.00    +0.206 A 
ATOM     10  C2  UNL     1      20.943  62.833  -2.825  0.00  0.00    +0.154 A 
ATOM     11  C3  UNL     1      20.616  61.555  -3.128  0.00  0.00    +0.169 A 
ATOM     12  N2  UNL     1      21.001  60.506  -2.363  0.00  0.00    -0.205 NA
ATOM     13  C4  UNL     1      21.742  60.764  -1.244  0.00  0.00    +0.202 A 
ATOM     14  N3  UNL     1      22.081  62.052  -0.909  0.00  0.00    -0.202 NA
ATOM     15  N4  UNL     1      19.882  61.527  -4.256  0.00  0.00    -0.269 N 
ATOM     16  C14 UNL     1      19.785  62.834  -4.615  0.00  0.00    +0.182 A 
ATOM     17  N6  UNL     1      20.430  63.660  -3.752  0.00  0.00    -0.219 NA
ENDBRANCH   1  15
BRANCH   3  18
ATOM     18  C7  UNL     1      20.923  59.221  -7.690  0.00  0.00    +0.090 C 
BRANCH  18  19
ATOM     19  S1  UNL     1      20.301  60.339  -9.003  0.00  0.00    -0.138 S 
BRANCH  19  20
ATOM     20  C8  UNL     1      20.848  59.321 -10.417  0.00  0.00    +0.060 C 
BRANCH  20  21
ATOM     21  C9  UNL     1      21.749  58.185  -9.928  0.00  0.00    +0.042 C 
BRANCH  21  22
ATOM     22  C10 UNL     1      22.201  57.257 -11.073  0.00  0.00    +0.195 C 
ATOM     23  N5  UNL     1      22.554  58.031 -12.265  0.00  0.00    -0.121 NA
BRANCH  22  24
ATOM     24  C11 UNL     1      21.093  56.295 -11.403  0.00  0.00    +0.382 C 
ATOM     25  O2  UNL     1      20.281  55.926 -10.513  0.00  0.00    -0.244 OA
ATOM     26  O3  UNL     1      20.980  55.782 -12.689  0.00  0.00    -0.244 OA
ENDBRANCH  22  24
ENDBRANCH  21  22
ENDBRANCH  20  21
ENDBRANCH  19  20
ENDBRANCH  18  19
ENDBRANCH   3  18
TORSDOF 7
ENDMDL
MODEL 4
REMARK VINA RESULT:      -6.8      3.854      8.538
REMARK  Name = ./threeLigTest/pdb/l2c1.pdb
REMARK  7 active torsions:
REMARK  status: ('A' for Active; 'I' for Inactive)
REMARK    1  A    between atoms: N4_8  and  C5_9
REMARK    2  A    between atoms: C6_11  and  C7_12
REMARK    3  A    between atoms: C7_12  and  S1_13
REMARK    4  A    between atoms: S1_13  and  C8_14
REMARK    5  A    between atoms: C8_14  and  C9_15
REMARK    6  A    between atoms: C9_15  and  C10_16
REMARK    7  A    between atoms: C10_16  and  C11_17
REMARK                            x       y       z     vdW  Elec       q    Type
REMARK                         _______ _______ _______ _____ _____    ______ ____
ROOT
ATOM      1  C5  UNL     1      19.100  59.615  -6.593  0.00  0.00    +0.241 C 
ATOM      2  O1  UNL     1      18.317  58.454  -6.738  0.00  0.00    -0.332 OA
ATOM      3  C6  UNL     1      18.588  57.907  -8.013  0.00  0.00    +0.161 C 
ATOM      4  C12 UNL     1      19.668  58.746  -8.709  0.00  0.00    +0.214 C 
ATOM      5  O4  UNL     1      19.064  59.594  -9.655  0.00  0.00    -0.218 OA
ATOM      6  C13 UNL     1      20.261  59.541  -7.569  0.00  0.00    +0.234 C 
ATOM      7  O5  UNL     1      20.669  60.826  -7.961  0.00  0.00    -0.216 OA
ENDROOT
BRANCH   1  15
ATOM      8  N1  UNL     1      21.163  61.179  -1.209  0.00  0.00    -0.125 NA
ATOM      9  C1  UNL     1      20.734  61.487  -2.393  0.00  0.00    +0.206 A 
ATOM     10  C2  UNL     1      20.329  60.503  -3.285  0.00  0.00    +0.154 A 
ATOM     11  C3  UNL     1      19.891  60.843  -4.519  0.00  0.00    +0.169 A 
ATOM     12  N2  UNL     1      19.818  62.130  -4.935  0.00  0.00    -0.205 NA
ATOM     13  C4  UNL     1      20.209  63.110  -4.066  0.00  0.00    +0.202 A 
ATOM     14  N3  UNL     1      20.665  62.791  -2.810  0.00  0.00    -0.202 NA
ATOM     15  N4  UNL     1      19.567  59.735  -5.210  0.00  0.00    -0.269 N 
ATOM     16  C14 UNL     1      19.827  58.721  -4.342  0.00  0.00    +0.182 A 
ATOM     17  N6  UNL     1      20.296  59.166  -3.148  0.00  0.00    -0.219 NA
ENDBRANCH   1  15
BRANCH   3  18
ATOM     18  C7  UNL     1      19.019  56.440  -7.862  0.00  0.00    +0.090 C 
BRANCH  18  19
ATOM     19  S1  UNL     1      18.507  55.451  -9.318  0.00  0.00    -0.138 S 
BRANCH  19  20
ATOM     20  C8  UNL     1      20.162  54.792  -9.715  0.00  0.00    +0.060 C 
BRANCH  20  21
ATOM     21  C9  UNL     1      21.160  55.942  -9.870  0.00  0.00    +0.042 C 
BRANCH  21  22
ATOM     22  C10 UNL     1      21.112  56.579 -11.273  0.00  0.00    +0.195 C 
ATOM     23  N5  UNL     1      21.100  55.548 -12.315  0.00  0.00    -0.121 NA
BRANCH  22  24
ATOM     24  C11 UNL     1      22.308  57.472 -11.458  0.00  0.00    +0.382 C 
ATOM     25  O2  UNL     1      22.396  58.559 -10.829  0.00  0.00    -0.244 OA
ATOM     26  O3  UNL     1      23.310  57.114 -12.352  0.00  0.00    -0.244 OA
ENDBRANCH  22  24
ENDBRANCH  21  22
ENDBRANCH  20  21
ENDBRANCH  19  20
ENDBRANCH  18  19
ENDBRANCH   3  18
TORSDOF 7
ENDMDL
MODEL 5
REMARK VINA RESULT:      -6.5      4.370      7.697
REMARK  Name = ./threeLigTest/pdb/l2c1.pdb
REMARK  7 active torsions:
REMARK  status: ('A' for Active; 'I' for Inactive)
REMARK    1  A    between atoms: N4_8  and  C5_9
REMARK    2  A    between atoms: C6_11  and  C7_12
REMARK    3  A    between atoms: C7_12  and  S1_13
REMARK    4  A    between atoms: S1_13  and  C8_14
REMARK    5  A    between atoms: C8_14  and  C9_15
REMARK    6  A    between atoms: C9_15  and  C10_16
REMARK    7  A    between atoms: C10_16  and  C11_17
REMARK                            x       y       z     vdW  Elec       q    Type
REMARK                         _______ _______ _______ _____ _____    ______ ____
ROOT
ATOM      1  C5  UNL     1      19.048  59.915  -6.549  0.00  0.00    +0.241 C 
ATOM      2  O1  UNL     1      17.959  59.026  -6.479  0.00  0.00    -0.332 OA
ATOM      3  C6  UNL     1      18.002  58.198  -7.624  0.00  0.00    +0.161 C 
ATOM      4  C12 UNL     1      19.245  58.543  -8.456  0.00  0.00    +0.214 C 
ATOM      5  O4  UNL     1      18.867  59.341  -9.552  0.00  0.00    -0.218 OA
ATOM      6  C13 UNL     1      20.092  59.328  -7.481  0.00  0.00    +0.234 C 
ATOM      7  O5  UNL     1      20.835  60.343  -8.106  0.00  0.00    -0.216 OA
ENDROOT
BRANCH   1  15
ATOM      8  N1  UNL     1      21.241  61.937  -1.373  0.00  0.00    -0.125 NA
ATOM      9  C1  UNL     1      20.684  62.140  -2.526  0.00  0.00    +0.206 A 
ATOM     10  C2  UNL     1      20.369  61.079  -3.364  0.00  0.00    +0.154 A 
ATOM     11  C3  UNL     1      19.794  61.311  -4.568  0.00  0.00    +0.169 A 
ATOM     12  N2  UNL     1      19.495  62.559  -5.001  0.00  0.00    -0.205 NA
ATOM     13  C4  UNL     1      19.796  63.613  -4.184  0.00  0.00    +0.202 A 
ATOM     14  N3  UNL     1      20.386  63.406  -2.962  0.00  0.00    -0.202 NA
ATOM     15  N4  UNL     1      19.593  60.146  -5.209  0.00  0.00    -0.269 N 
ATOM     16  C14 UNL     1      20.067  59.211  -4.344  0.00  0.00    +0.182 A 
ATOM     17  N6  UNL     1      20.550  59.757  -3.200  0.00  0.00    -0.219 NA
ENDBRANCH   1  15
BRANCH   3  18
ATOM     18  C7  UNL     1      17.999  56.723  -7.194  0.00  0.00    +0.090 C 
BRANCH  18  19
ATOM     19  S1  UNL     1      19.706  56.061  -7.103  0.00  0.00    -0.138 S 
BRANCH  19  20
ATOM     20  C8  UNL     1      19.427  54.962  -5.673  0.00  0.00    +0.060 C 
BRANCH  20  21
ATOM     21  C9  UNL     1      18.949  55.778  -4.470  0.00  0.00    +0.042 C 
BRANCH  21  22
ATOM     22  C10 UNL     1      18.442  54.889  -3.318  0.00  0.00    +0.195 C 
ATOM     23  N5  UNL     1      17.040  54.515  -3.524  0.00  0.00    -0.121 NA
BRANCH  22  24
ATOM     24  C11 UNL     1      18.582  55.628  -2.016  0.00  0.00    +0.382 C 
ATOM     25  O2  UNL     1      18.712  56.881  -2.004  0.00  0.00    -0.244 OA
ATOM     26  O3  UNL     1      18.600  54.926  -0.817  0.00  0.00    -0.244 OA
ENDBRANCH  22  24
ENDBRANCH  21  22
ENDBRANCH  20  21
ENDBRANCH  19  20
ENDBRANCH  18  19
ENDBRANCH   3  18
TORSDOF 7
ENDMDL
MODEL 6
REMARK VINA RESULT:      -6.1      4.664      8.381
REMARK  Name = ./threeLigTest/pdb/l2c1.pdb
REMARK  7 active torsions:
REMARK  status: ('A' for Active; 'I' for Inactive)
REMARK    1  A    between atoms: N4_8  and  C5_9
REMARK    2  A    between atoms: C6_11  and  C7_12
REMARK    3  A    between atoms: C7_12  and  S1_13
REMARK    4  A    between atoms: S1_13  and  C8_14
REMARK    5  A    between atoms: C8_14  and  C9_15
REMARK    6  A    between atoms: C9_15  and  C10_16
REMARK    7  A    between atoms: C10_16  and  C11_17
REMARK                            x       y       z     vdW  Elec       q    Type
REMARK                         _______ _______ _______ _____ _____    ______ ____
ROOT
ATOM      1  C5  UNL     1      19.169  59.335  -7.078  0.00  0.00    +0.241 C 
ATOM      2  O1  UNL     1      17.951  58.801  -7.539  0.00  0.00    -0.332 OA
ATOM      3  C6  UNL     1      18.121  58.445  -8.896  0.00  0.00    +0.161 C 
ATOM      4  C12 UNL     1      19.573  58.715  -9.316  0.00  0.00    +0.214 C 
ATOM      5  O4  UNL     1      19.631  59.914 -10.050  0.00  0.00    -0.218 OA
ATOM      6  C13 UNL     1      20.284  58.855  -7.990  0.00  0.00    +0.234 C 
ATOM      7  O5  UNL     1      21.332  59.788  -8.035  0.00  0.00    -0.216 OA
ENDROOT
BRANCH   1  15
ATOM      8  N1  UNL     1      20.686  58.642  -1.342  0.00  0.00    -0.125 NA
ATOM      9  C1  UNL     1      20.610  59.364  -2.415  0.00  0.00    +0.206 A 
ATOM     10  C2  UNL     1      20.040  58.860  -3.577  0.00  0.00    +0.154 A 
ATOM     11  C3  UNL     1      19.976  59.625  -4.691  0.00  0.00    +0.169 A 
ATOM     12  N2  UNL     1      20.444  60.895  -4.727  0.00  0.00    -0.205 NA
ATOM     13  C4  UNL     1      21.005  61.407  -3.590  0.00  0.00    +0.202 A 
ATOM     14  N3  UNL     1      21.089  60.648  -2.449  0.00  0.00    -0.202 NA
ATOM     15  N4  UNL     1      19.400  58.931  -5.689  0.00  0.00    -0.269 N 
ATOM     16  C14 UNL     1      19.122  57.724  -5.129  0.00  0.00    +0.182 A 
ATOM     17  N6  UNL     1      19.504  57.652  -3.829  0.00  0.00    -0.219 NA
ENDBRANCH   1  15
BRANCH   3  18
ATOM     18  C7  UNL     1      17.739  56.969  -9.093  0.00  0.00    +0.090 C 
BRANCH  18  19
ATOM     19  S1  UNL     1      19.046  55.859  -8.447  0.00  0.00    -0.138 S 
BRANCH  19  20
ATOM     20  C8  UNL     1      17.931  54.519  -7.905  0.00  0.00    +0.060 C 
BRANCH  20  21
ATOM     21  C9  UNL     1      16.647  55.110  -7.321  0.00  0.00    +0.042 C 
BRANCH  21  22
ATOM     22  C10 UNL     1      15.392  54.312  -7.727  0.00  0.00    +0.195 C 
ATOM     23  N5  UNL     1      15.432  53.964  -9.150  0.00  0.00    -0.121 NA
BRANCH  22  24
ATOM     24  C11 UNL     1      14.164  55.131  -7.441  0.00  0.00    +0.382 C 
ATOM     25  O2  UNL     1      13.326  55.364  -8.353  0.00  0.00    -0.244 OA
ATOM     26  O3  UNL     1      13.964  55.662  -6.173  0.00  0.00    -0.244 OA
ENDBRANCH  22  24
ENDBRANCH  21  22
ENDBRANCH  20  21
ENDBRANCH  19  20
ENDBRANCH  18  19
ENDBRANCH   3  18
TORSDOF 7
ENDMDL
MODEL 7
REMARK VINA RESULT:      -6.0      4.589      8.600
REMARK  Name = ./threeLigTest/pdb/l2c1.pdb
REMARK  7 active torsions:
REMARK  status: ('A' for Active; 'I' for Inactive)
REMARK    1  A    between atoms: N4_8  and  C5_9
REMARK    2  A    between atoms: C6_11  and  C7_12
REMARK    3  A    between atoms: C7_12  and  S1_13
REMARK    4  A    between atoms: S1_13  and  C8_14
REMARK    5  A    between atoms: C8_14  and  C9_15
REMARK    6  A    between atoms: C9_15  and  C10_16
REMARK    7  A    between atoms: C10_16  and  C11_17
REMARK                            x       y       z     vdW  Elec       q    Type
REMARK                         _______ _______ _______ _____ _____    ______ ____
ROOT
ATOM      1  C5  UNL     1      19.261  60.014  -5.693  0.00  0.00    +0.241 C 
ATOM      2  O1  UNL     1      18.377  58.940  -5.477  0.00  0.00    -0.332 OA
ATOM      3  C6  UNL     1      18.429  58.102  -6.613  0.00  0.00    +0.161 C 
ATOM      4  C12 UNL     1      19.468  58.648  -7.603  0.00  0.00    +0.214 C 
ATOM      5  O4  UNL     1      18.810  59.328  -8.644  0.00  0.00    -0.218 OA
ATOM      6  C13 UNL     1      20.270  59.605  -6.752  0.00  0.00    +0.234 C 
ATOM      7  O5  UNL     1      20.722  60.721  -7.473  0.00  0.00    -0.216 OA
ENDROOT
BRANCH   1  15
ATOM      8  N1  UNL     1      21.881  62.559  -0.966  0.00  0.00    -0.125 NA
ATOM      9  C1  UNL     1      21.223  62.643  -2.080  0.00  0.00    +0.206 A 
ATOM     10  C2  UNL     1      20.845  61.501  -2.774  0.00  0.00    +0.154 A 
ATOM     11  C3  UNL     1      20.165  61.607  -3.939  0.00  0.00    +0.169 A 
ATOM     12  N2  UNL     1      19.818  62.804  -4.470  0.00  0.00    -0.205 NA
ATOM     13  C4  UNL     1      20.179  63.936  -3.796  0.00  0.00    +0.202 A 
ATOM     14  N3  UNL     1      20.877  63.856  -2.616  0.00  0.00    -0.202 NA
ATOM     15  N4  UNL     1      19.919  60.382  -4.438  0.00  0.00    -0.269 N 
ATOM     16  C14 UNL     1      20.476  59.541  -3.526  0.00  0.00    +0.182 A 
ATOM     17  N6  UNL     1      21.053  60.203  -2.491  0.00  0.00    -0.219 NA
ENDBRANCH   1  15
BRANCH   3  18
ATOM     18  C7  UNL     1      18.759  56.665  -6.179  0.00  0.00    +0.090 C 
BRANCH  18  19
ATOM     19  S1  UNL     1      18.903  55.555  -7.630  0.00  0.00    -0.138 S 
BRANCH  19  20
ATOM     20  C8  UNL     1      17.181  55.746  -8.208  0.00  0.00    +0.060 C 
BRANCH  20  21
ATOM     21  C9  UNL     1      16.233  54.963  -7.297  0.00  0.00    +0.042 C 
BRANCH  21  22
ATOM     22  C10 UNL     1      14.924  54.568  -8.008  0.00  0.00    +0.195 C 
ATOM     23  N5  UNL     1      14.711  55.387  -9.204  0.00  0.00    -0.121 NA
BRANCH  22  24
ATOM     24  C11 UNL     1      13.768  54.744  -7.062  0.00  0.00    +0.382 C 
ATOM     25  O2  UNL     1      12.605  54.402  -7.404  0.00  0.00    -0.244 OA
ATOM     26  O3  UNL     1      13.975  55.316  -5.813  0.00  0.00    -0.244 OA
ENDBRANCH  22  24
ENDBRANCH  21  22
ENDBRANCH  20  21
ENDBRANCH  19  20
ENDBRANCH  18  19
ENDBRANCH   3  18
TORSDOF 7
ENDMDL
