MODEL 1
REMARK VINA RESULT:      -9.5      0.000      0.000
REMARK  Name = ./threeLigTest/pdb/l0c3.pdb
REMARK  11 active torsions:
REMARK  status: ('A' for Active; 'I' for Inactive)
REMARK    1  A    between atoms: O1_2  and  C2_3
REMARK    2  A    between atoms: C5_6  and  C6_7
REMARK    3  A    between atoms: N2_9  and  C7_10
REMARK    4  A    between atoms: C19_23  and  O3_24
REMARK    5  A    between atoms: O3_24  and  C20_25
REMARK    6  A    between atoms: C20_25  and  C21_26
REMARK    7  A    between atoms: C21_26  and  C22_27
REMARK    8  A    between atoms: C22_27  and  C23_28
REMARK    9  A    between atoms: C23_28  and  O4_29
REMARK   10  A    between atoms: O4_29  and  C24_30
REMARK   11  A    between atoms: C27_33  and  C28_34
REMARK                            x       y       z     vdW  Elec       q    Type
REMARK                         _______ _______ _______ _____ _____    ______ ____
ROOT
ATOM      1  C2  UNL     1      18.400  54.965  -3.507  0.00  0.00    +0.172 A 
ATOM      2  C3  UNL     1      18.218  54.794  -4.891  0.00  0.00    +0.040 A 
ATOM      3  C4  UNL     1      18.711  55.738  -5.793  0.00  0.00    +0.005 A 
ATOM      4  C5  UNL     1      19.371  56.890  -5.335  0.00  0.00    +0.019 A 
ATOM      5  C18 UNL     1      19.520  57.072  -3.946  0.00  0.00    +0.041 A 
ATOM      6  C19 UNL     1      19.064  56.105  -3.034  0.00  0.00    +0.172 A 
ENDROOT
BRANCH   4   7
ATOM      7  C6  UNL     1      19.967  57.892  -6.264  0.00  0.00    +0.086 C 
ATOM      8  N1  UNL     1      20.647  57.515  -7.299  0.00  0.00    -0.171 NA
ATOM      9  N2  UNL     1      20.932  58.605  -8.122  0.00  0.00    -0.222 N 
ATOM     10  C14 UNL     1      20.415  59.675  -7.611  0.00  0.00    +0.257 C 
ATOM     11  O2  UNL     1      20.441  60.917  -8.245  0.00  0.00    -0.270 OA
ATOM     12  C15 UNL     1      19.757  59.395  -6.288  0.00  0.00    +0.110 C 
ATOM     13  C16 UNL     1      18.274  59.792  -6.344  0.00  0.00    +0.015 C 
ATOM     14  C17 UNL     1      20.528  60.120  -5.173  0.00  0.00    +0.015 C 
BRANCH   9  15
ATOM     15  C7  UNL     1      21.570  58.502  -9.450  0.00  0.00    +0.108 C 
ATOM     16  C8  UNL     1      20.929  59.494 -10.463  0.00  0.00    +0.024 C 
ATOM     17  C9  UNL     1      21.930  60.003 -11.516  0.00  0.00    +0.002 C 
ATOM     18  C10 UNL     1      22.274  58.982 -12.606  0.00  0.00    +0.000 C 
ATOM     19  C11 UNL     1      22.861  57.676 -12.057  0.00  0.00    +0.000 C 
ATOM     20  C12 UNL     1      21.775  56.779 -11.433  0.00  0.00    +0.002 C 
ATOM     21  C13 UNL     1      21.520  57.031  -9.935  0.00  0.00    +0.024 C 
ENDBRANCH   9  15
ENDBRANCH   4   7
BRANCH   1  23
ATOM     22  C1  UNL     1      16.595  53.782  -2.249  0.00  0.00    +0.253 C 
ATOM     23  O1  UNL     1      17.960  54.015  -2.574  0.00  0.00    -0.468 OA
ENDBRANCH   1  23
BRANCH   6  24
ATOM     24  O3  UNL     1      19.286  56.223  -1.654  0.00  0.00    -0.472 OA
BRANCH  24  25
ATOM     25  C20 UNL     1      18.925  57.354  -0.862  0.00  0.00    +0.206 C 
BRANCH  25  26
ATOM     26  C21 UNL     1      20.117  57.809  -0.016  0.00  0.00    +0.051 C 
BRANCH  26  27
ATOM     27  C22 UNL     1      20.499  59.289  -0.225  0.00  0.00    +0.051 C 
BRANCH  27  28
ATOM     28  C23 UNL     1      21.274  59.556  -1.528  0.00  0.00    +0.206 C 
BRANCH  28  29
ATOM     29  O4  UNL     1      22.008  60.781  -1.489  0.00  0.00    -0.475 OA
BRANCH  29  30
ATOM     30  C24 UNL     1      21.532  62.035  -1.897  0.00  0.00    +0.139 A 
ATOM     31  C25 UNL     1      22.152  63.171  -1.374  0.00  0.00    +0.037 A 
ATOM     32  C26 UNL     1      21.686  64.447  -1.696  0.00  0.00    +0.006 A 
ATOM     33  C27 UNL     1      20.590  64.612  -2.560  0.00  0.00    +0.040 A 
ATOM     34  C29 UNL     1      19.987  63.470  -3.112  0.00  0.00    +0.006 A 
ATOM     35  C30 UNL     1      20.457  62.192  -2.789  0.00  0.00    +0.037 A 
BRANCH  33  36
ATOM     36  C28 UNL     1      20.075  65.974  -2.848  0.00  0.00    +0.208 A 
ATOM     37  N3  UNL     1      20.443  66.713  -3.912  0.00  0.00    -0.106 NA
ATOM     38  N4  UNL     1      19.769  67.849  -3.796  0.00  0.00    -0.021 NA
ATOM     39  N5  UNL     1      19.017  67.817  -2.707  0.00  0.00    -0.021 NA
ATOM     40  N6  UNL     1      19.192  66.659  -2.099  0.00  0.00    -0.106 NA
ENDBRANCH  33  36
ENDBRANCH  29  30
ENDBRANCH  28  29
ENDBRANCH  27  28
ENDBRANCH  26  27
ENDBRANCH  25  26
ENDBRANCH  24  25
ENDBRANCH   6  24
TORSDOF 11
ENDMDL
MODEL 2
REMARK VINA RESULT:      -6.7      1.781      2.600
REMARK  Name = ./threeLigTest/pdb/l0c3.pdb
REMARK  11 active torsions:
REMARK  status: ('A' for Active; 'I' for Inactive)
REMARK    1  A    between atoms: O1_2  and  C2_3
REMARK    2  A    between atoms: C5_6  and  C6_7
REMARK    3  A    between atoms: N2_9  and  C7_10
REMARK    4  A    between atoms: C19_23  and  O3_24
REMARK    5  A    between atoms: O3_24  and  C20_25
REMARK    6  A    between atoms: C20_25  and  C21_26
REMARK    7  A    between atoms: C21_26  and  C22_27
REMARK    8  A    between atoms: C22_27  and  C23_28
REMARK    9  A    between atoms: C23_28  and  O4_29
REMARK   10  A    between atoms: O4_29  and  C24_30
REMARK   11  A    between atoms: C27_33  and  C28_34
REMARK                            x       y       z     vdW  Elec       q    Type
REMARK                         _______ _______ _______ _____ _____    ______ ____
ROOT
ATOM      1  C2  UNL     1      18.852  54.265  -3.058  0.00  0.00    +0.172 A 
ATOM      2  C3  UNL     1      18.286  53.564  -4.137  0.00  0.00    +0.040 A 
ATOM      3  C4  UNL     1      18.067  54.200  -5.360  0.00  0.00    +0.005 A 
ATOM      4  C5  UNL     1      18.381  55.558  -5.527  0.00  0.00    +0.019 A 
ATOM      5  C18 UNL     1      18.916  56.264  -4.431  0.00  0.00    +0.041 A 
ATOM      6  C19 UNL     1      19.177  55.619  -3.210  0.00  0.00    +0.172 A 
ENDROOT
BRANCH   4   7
ATOM      7  C6  UNL     1      18.222  56.261  -6.832  0.00  0.00    +0.086 C 
ATOM      8  N1  UNL     1      19.150  57.044  -7.281  0.00  0.00    -0.171 NA
ATOM      9  N2  UNL     1      18.875  57.427  -8.594  0.00  0.00    -0.222 N 
ATOM     10  C14 UNL     1      17.774  56.868  -8.983  0.00  0.00    +0.257 C 
ATOM     11  O2  UNL     1      17.278  56.975 -10.282  0.00  0.00    -0.270 OA
ATOM     12  C15 UNL     1      17.139  56.070  -7.879  0.00  0.00    +0.110 C 
ATOM     13  C16 UNL     1      16.979  54.605  -8.315  0.00  0.00    +0.015 C 
ATOM     14  C17 UNL     1      15.806  56.723  -7.480  0.00  0.00    +0.015 C 
BRANCH   9  15
ATOM     15  C7  UNL     1      19.798  58.203  -9.446  0.00  0.00    +0.108 C 
ATOM     16  C8  UNL     1      21.281  57.957  -9.043  0.00  0.00    +0.024 C 
ATOM     17  C9  UNL     1      22.248  58.053 -10.236  0.00  0.00    +0.002 C 
ATOM     18  C10 UNL     1      22.529  59.484 -10.709  0.00  0.00    +0.000 C 
ATOM     19  C11 UNL     1      21.265  60.250 -11.122  0.00  0.00    +0.000 C 
ATOM     20  C12 UNL     1      20.453  60.716  -9.899  0.00  0.00    +0.002 C 
ATOM     21  C13 UNL     1      19.404  59.702  -9.403  0.00  0.00    +0.024 C 
ENDBRANCH   9  15
ENDBRANCH   4   7
BRANCH   1  23
ATOM     22  C1  UNL     1      18.259  53.676  -0.704  0.00  0.00    +0.253 C 
ATOM     23  O1  UNL     1      19.128  53.647  -1.830  0.00  0.00    -0.468 OA
ENDBRANCH   1  23
BRANCH   6  24
ATOM     24  O3  UNL     1      19.796  56.281  -2.139  0.00  0.00    -0.472 OA
BRANCH  24  25
ATOM     25  C20 UNL     1      19.374  57.532  -1.599  0.00  0.00    +0.206 C 
BRANCH  25  26
ATOM     26  C21 UNL     1      20.549  58.236  -0.915  0.00  0.00    +0.051 C 
BRANCH  26  27
ATOM     27  C22 UNL     1      20.934  59.580  -1.566  0.00  0.00    +0.051 C 
BRANCH  27  28
ATOM     28  C23 UNL     1      20.547  59.688  -3.052  0.00  0.00    +0.206 C 
BRANCH  28  29
ATOM     29  O4  UNL     1      21.200  60.774  -3.711  0.00  0.00    -0.475 OA
BRANCH  29  30
ATOM     30  C24 UNL     1      20.819  62.122  -3.644  0.00  0.00    +0.139 A 
ATOM     31  C25 UNL     1      21.373  62.909  -2.632  0.00  0.00    +0.037 A 
ATOM     32  C26 UNL     1      20.989  64.242  -2.477  0.00  0.00    +0.006 A 
ATOM     33  C27 UNL     1      20.045  64.820  -3.343  0.00  0.00    +0.040 A 
ATOM     34  C29 UNL     1      19.512  64.038  -4.382  0.00  0.00    +0.006 A 
ATOM     35  C30 UNL     1      19.900  62.703  -4.536  0.00  0.00    +0.037 A 
BRANCH  33  36
ATOM     36  C28 UNL     1      19.609  66.223  -3.130  0.00  0.00    +0.208 A 
ATOM     37  N3  UNL     1      18.754  66.612  -2.165  0.00  0.00    -0.106 NA
ATOM     38  N4  UNL     1      18.626  67.922  -2.322  0.00  0.00    -0.021 NA
ATOM     39  N5  UNL     1      19.367  68.328  -3.342  0.00  0.00    -0.021 NA
ATOM     40  N6  UNL     1      19.987  67.287  -3.862  0.00  0.00    -0.106 NA
ENDBRANCH  33  36
ENDBRANCH  29  30
ENDBRANCH  28  29
ENDBRANCH  27  28
ENDBRANCH  26  27
ENDBRANCH  25  26
ENDBRANCH  24  25
ENDBRANCH   6  24
TORSDOF 11
ENDMDL
