MODEL 1
REMARK VINA RESULT:      -7.7      0.000      0.000
REMARK  Name = ./threeLigTest/pdb/l2c4.pdb
REMARK  7 active torsions:
REMARK  status: ('A' for Active; 'I' for Inactive)
REMARK    1  A    between atoms: N5_10  and  C6_11
REMARK    2  A    between atoms: C7_13  and  C8_14
REMARK    3  A    between atoms: C8_14  and  S1_15
REMARK    4  A    between atoms: S1_15  and  C9_16
REMARK    5  A    between atoms: C9_16  and  C10_17
REMARK    6  A    between atoms: C10_17  and  C11_18
REMARK    7  A    between atoms: C11_18  and  C12_20
REMARK                            x       y       z     vdW  Elec       q    Type
REMARK                         _______ _______ _______ _____ _____    ______ ____
ROOT
ATOM      1  C6  UNL     1      19.009  59.029  -5.438  0.00  0.00    +0.241 C 
ATOM      2  O1  UNL     1      19.714  57.844  -5.740  0.00  0.00    -0.332 OA
ATOM      3  C7  UNL     1      19.439  57.498  -7.082  0.00  0.00    +0.161 C 
ATOM      4  C13 UNL     1      18.339  58.420  -7.619  0.00  0.00    +0.214 C 
ATOM      5  O4  UNL     1      17.080  57.817  -7.448  0.00  0.00    -0.218 OA
ATOM      6  C14 UNL     1      18.468  59.626  -6.728  0.00  0.00    +0.234 C 
ATOM      7  O5  UNL     1      17.237  60.267  -6.512  0.00  0.00    -0.216 OA
ENDROOT
BRANCH   1  17
ATOM      8  N1  UNL     1      22.304  62.421  -1.581  0.00  0.00    -0.105 NA
ATOM      9  C1  UNL     1      21.613  61.225  -1.950  0.00  0.00    +0.192 A 
ATOM     10  N2  UNL     1      21.494  60.195  -1.059  0.00  0.00    -0.204 NA
ATOM     11  C2  UNL     1      20.835  59.037  -1.387  0.00  0.00    +0.202 A 
ATOM     12  N3  UNL     1      20.274  58.884  -2.624  0.00  0.00    -0.205 NA
ATOM     13  C3  UNL     1      20.405  59.899  -3.517  0.00  0.00    +0.169 A 
ATOM     14  C4  UNL     1      21.046  61.054  -3.209  0.00  0.00    +0.152 A 
ATOM     15  N4  UNL     1      20.955  61.909  -4.243  0.00  0.00    -0.219 NA
ATOM     16  C5  UNL     1      20.233  61.232  -5.172  0.00  0.00    +0.182 A 
ATOM     17  N5  UNL     1      19.891  59.982  -4.759  0.00  0.00    -0.269 N 
ENDBRANCH   1  17
BRANCH   3  18
ATOM     18  C8  UNL     1      20.734  57.612  -7.898  0.00  0.00    +0.090 C 
BRANCH  18  19
ATOM     19  S1  UNL     1      20.529  56.852  -9.553  0.00  0.00    -0.138 S 
BRANCH  19  20
ATOM     20  C9  UNL     1      21.918  57.732 -10.353  0.00  0.00    +0.060 C 
BRANCH  20  21
ATOM     21  C10 UNL     1      21.389  58.745 -11.378  0.00  0.00    +0.042 C 
BRANCH  21  22
ATOM     22  C11 UNL     1      21.248  60.153 -10.775  0.00  0.00    +0.195 C 
ATOM     23  N6  UNL     1      19.896  60.354 -10.249  0.00  0.00    -0.121 NA
BRANCH  22  24
ATOM     24  C12 UNL     1      21.574  61.198 -11.808  0.00  0.00    +0.382 C 
ATOM     25  O2  UNL     1      21.206  61.043 -13.003  0.00  0.00    -0.244 OA
ATOM     26  O3  UNL     1      22.282  62.341 -11.452  0.00  0.00    -0.244 OA
ENDBRANCH  22  24
ENDBRANCH  21  22
ENDBRANCH  20  21
ENDBRANCH  19  20
ENDBRANCH  18  19
ENDBRANCH   3  18
TORSDOF 7
ENDMDL
MODEL 2
REMARK VINA RESULT:      -7.2      1.574      2.612
REMARK  Name = ./threeLigTest/pdb/l2c4.pdb
REMARK  7 active torsions:
REMARK  status: ('A' for Active; 'I' for Inactive)
REMARK    1  A    between atoms: N5_10  and  C6_11
REMARK    2  A    between atoms: C7_13  and  C8_14
REMARK    3  A    between atoms: C8_14  and  S1_15
REMARK    4  A    between atoms: S1_15  and  C9_16
REMARK    5  A    between atoms: C9_16  and  C10_17
REMARK    6  A    between atoms: C10_17  and  C11_18
REMARK    7  A    between atoms: C11_18  and  C12_20
REMARK                            x       y       z     vdW  Elec       q    Type
REMARK                         _______ _______ _______ _____ _____    ______ ____
ROOT
ATOM      1  C6  UNL     1      19.024  56.577  -6.326  0.00  0.00    +0.241 C 
ATOM      2  O1  UNL     1      20.192  56.041  -6.911  0.00  0.00    -0.332 OA
ATOM      3  C7  UNL     1      20.029  56.056  -8.315  0.00  0.00    +0.161 C 
ATOM      4  C13 UNL     1      18.587  56.456  -8.644  0.00  0.00    +0.214 C 
ATOM      5  O4  UNL     1      17.792  55.307  -8.797  0.00  0.00    -0.218 OA
ATOM      6  C14 UNL     1      18.176  57.219  -7.414  0.00  0.00    +0.234 C 
ATOM      7  O5  UNL     1      16.806  57.086  -7.132  0.00  0.00    -0.216 OA
ENDROOT
BRANCH   1  17
ATOM      8  N1  UNL     1      21.201  61.166  -2.945  0.00  0.00    -0.105 NA
ATOM      9  C1  UNL     1      20.850  60.561  -4.192  0.00  0.00    +0.192 A 
ATOM     10  N2  UNL     1      21.114  61.205  -5.369  0.00  0.00    -0.204 NA
ATOM     11  C2  UNL     1      20.789  60.646  -6.579  0.00  0.00    +0.202 A 
ATOM     12  N3  UNL     1      20.189  59.419  -6.639  0.00  0.00    -0.205 NA
ATOM     13  C3  UNL     1      19.910  58.785  -5.471  0.00  0.00    +0.169 A 
ATOM     14  C4  UNL     1      20.230  59.317  -4.265  0.00  0.00    +0.152 A 
ATOM     15  N4  UNL     1      19.917  58.445  -3.291  0.00  0.00    -0.219 NA
ATOM     16  C5  UNL     1      19.409  57.376  -3.952  0.00  0.00    +0.182 A 
ATOM     17  N5  UNL     1      19.378  57.560  -5.300  0.00  0.00    -0.269 N 
ENDBRANCH   1  17
BRANCH   3  18
ATOM     18  C8  UNL     1      21.049  57.030  -8.921  0.00  0.00    +0.090 C 
BRANCH  18  19
ATOM     19  S1  UNL     1      21.596  56.455 -10.573  0.00  0.00    -0.138 S 
BRANCH  19  20
ATOM     20  C9  UNL     1      21.649  58.107 -11.355  0.00  0.00    +0.060 C 
BRANCH  20  21
ATOM     21  C10 UNL     1      22.123  59.161 -10.345  0.00  0.00    +0.042 C 
BRANCH  21  22
ATOM     22  C11 UNL     1      21.274  60.443 -10.410  0.00  0.00    +0.195 C 
ATOM     23  N6  UNL     1      19.847  60.115 -10.392  0.00  0.00    -0.121 NA
BRANCH  22  24
ATOM     24  C12 UNL     1      21.618  61.234 -11.644  0.00  0.00    +0.382 C 
ATOM     25  O2  UNL     1      21.204  60.857 -12.773  0.00  0.00    -0.244 OA
ATOM     26  O3  UNL     1      22.394  62.384 -11.547  0.00  0.00    -0.244 OA
ENDBRANCH  22  24
ENDBRANCH  21  22
ENDBRANCH  20  21
ENDBRANCH  19  20
ENDBRANCH  18  19
ENDBRANCH   3  18
TORSDOF 7
ENDMDL
MODEL 3
REMARK VINA RESULT:      -5.0      2.770      4.090
REMARK  Name = ./threeLigTest/pdb/l2c4.pdb
REMARK  7 active torsions:
REMARK  status: ('A' for Active; 'I' for Inactive)
REMARK    1  A    between atoms: N5_10  and  C6_11
REMARK    2  A    between atoms: C7_13  and  C8_14
REMARK    3  A    between atoms: C8_14  and  S1_15
REMARK    4  A    between atoms: S1_15  and  C9_16
REMARK    5  A    between atoms: C9_16  and  C10_17
REMARK    6  A    between atoms: C10_17  and  C11_18
REMARK    7  A    between atoms: C11_18  and  C12_20
REMARK                            x       y       z     vdW  Elec       q    Type
REMARK                         _______ _______ _______ _____ _____    ______ ____
ROOT
ATOM      1  C6  UNL     1      17.886  54.979  -6.872  0.00  0.00    +0.241 C 
ATOM      2  O1  UNL     1      18.816  54.268  -7.662  0.00  0.00    -0.332 OA
ATOM      3  C7  UNL     1      18.377  54.312  -9.005  0.00  0.00    +0.161 C 
ATOM      4  C13 UNL     1      16.978  54.934  -9.052  0.00  0.00    +0.214 C 
ATOM      5  O4  UNL     1      16.001  53.924  -9.009  0.00  0.00    -0.218 OA
ATOM      6  C14 UNL     1      16.946  55.750  -7.787  0.00  0.00    +0.234 C 
ATOM      7  O5  UNL     1      15.658  55.832  -7.234  0.00  0.00    -0.216 OA
ENDROOT
BRANCH   1  17
ATOM      8  N1  UNL     1      20.646  59.608  -4.009  0.00  0.00    -0.105 NA
ATOM      9  C1  UNL     1      19.723  59.071  -4.960  0.00  0.00    +0.192 A 
ATOM     10  N2  UNL     1      19.025  59.902  -5.790  0.00  0.00    -0.204 NA
ATOM     11  C2  UNL     1      18.135  59.413  -6.712  0.00  0.00    +0.202 A 
ATOM     12  N3  UNL     1      17.923  58.067  -6.826  0.00  0.00    -0.205 NA
ATOM     13  C3  UNL     1      18.603  57.239  -5.991  0.00  0.00    +0.169 A 
ATOM     14  C4  UNL     1      19.492  57.703  -5.078  0.00  0.00    +0.152 A 
ATOM     15  N4  UNL     1      20.074  56.667  -4.450  0.00  0.00    -0.219 NA
ATOM     16  C5  UNL     1      19.512  55.573  -5.020  0.00  0.00    +0.182 A 
ATOM     17  N5  UNL     1      18.588  55.893  -5.966  0.00  0.00    -0.269 N 
ENDBRANCH   1  17
BRANCH   3  18
ATOM     18  C8  UNL     1      19.392  55.115  -9.831  0.00  0.00    +0.090 C 
BRANCH  18  19
ATOM     19  S1  UNL     1      21.105  54.752  -9.289  0.00  0.00    -0.138 S 
BRANCH  19  20
ATOM     20  C9  UNL     1      21.516  56.456  -8.768  0.00  0.00    +0.060 C 
BRANCH  20  21
ATOM     21  C10 UNL     1      20.551  57.460  -9.412  0.00  0.00    +0.042 C 
BRANCH  21  22
ATOM     22  C11 UNL     1      21.121  58.889  -9.409  0.00  0.00    +0.195 C 
ATOM     23  N6  UNL     1      21.603  59.247  -8.073  0.00  0.00    -0.121 NA
BRANCH  22  24
ATOM     24  C12 UNL     1      20.077  59.868  -9.873  0.00  0.00    +0.382 C 
ATOM     25  O2  UNL     1      18.866  59.523  -9.931  0.00  0.00    -0.244 OA
ATOM     26  O3  UNL     1      20.440  61.159 -10.242  0.00  0.00    -0.244 OA
ENDBRANCH  22  24
ENDBRANCH  21  22
ENDBRANCH  20  21
ENDBRANCH  19  20
ENDBRANCH  18  19
ENDBRANCH   3  18
TORSDOF 7
ENDMDL
