MODEL 1
REMARK VINA RESULT:      -8.2      0.000      0.000
REMARK  Name = ./threeLigTest/pdb/l1c1.pdb
REMARK  11 active torsions:
REMARK  status: ('A' for Active; 'I' for Inactive)
REMARK    1  A    between atoms: O1_2  and  C2_3
REMARK    2  A    between atoms: C5_6  and  C6_7
REMARK    3  A    between atoms: N2_9  and  C7_10
REMARK    4  A    between atoms: C22_26  and  O3_27
REMARK    5  A    between atoms: O3_27  and  C23_28
REMARK    6  A    between atoms: C23_28  and  C24_29
REMARK    7  A    between atoms: C24_29  and  C25_30
REMARK    8  A    between atoms: C25_30  and  C26_31
REMARK    9  A    between atoms: C26_31  and  O4_32
REMARK   10  A    between atoms: O4_32  and  C27_33
REMARK   11  A    between atoms: C30_36  and  C31_37
REMARK                            x       y       z     vdW  Elec       q    Type
REMARK                         _______ _______ _______ _____ _____    ______ ____
ROOT
ATOM      1  C2  UNL     1      21.342  60.626  -0.795  0.00  0.00    +0.172 A 
ATOM      2  C3  UNL     1      20.837  59.864   0.271  0.00  0.00    +0.040 A 
ATOM      3  C4  UNL     1      20.136  58.681   0.030  0.00  0.00    +0.005 A 
ATOM      4  C5  UNL     1      19.961  58.200  -1.284  0.00  0.00    +0.018 A 
ATOM      5  C21 UNL     1      20.487  58.967  -2.344  0.00  0.00    +0.041 A 
ATOM      6  C22 UNL     1      21.136  60.192  -2.109  0.00  0.00    +0.172 A 
ENDROOT
BRANCH   4   7
ATOM      7  C6  UNL     1      19.217  56.935  -1.579  0.00  0.00    +0.077 C 
ATOM      8  N1  UNL     1      19.037  56.594  -2.828  0.00  0.00    -0.180 NA
ATOM      9  N2  UNL     1      18.293  55.473  -3.247  0.00  0.00    -0.183 N 
ATOM     10  C14 UNL     1      17.865  54.524  -2.253  0.00  0.00    +0.244 C 
ATOM     11  O2  UNL     1      17.058  53.596  -2.542  0.00  0.00    -0.273 OA
ATOM     12  C15 UNL     1      18.466  54.633  -0.880  0.00  0.00    +0.089 C 
ATOM     13  C16 UNL     1      17.738  53.807   0.202  0.00  0.00    +0.035 C 
ATOM     14  C17 UNL     1      16.485  54.466   0.714  0.00  0.00    -0.030 C 
ATOM     15  C18 UNL     1      16.279  55.788   0.634  0.00  0.00    -0.030 C 
ATOM     16  C19 UNL     1      17.149  56.702  -0.191  0.00  0.00    +0.032 C 
ATOM     17  C20 UNL     1      18.549  56.118  -0.480  0.00  0.00    +0.055 C 
BRANCH   9  18
ATOM     18  C7  UNL     1      18.215  55.143  -4.684  0.00  0.00    +0.099 C 
ATOM     19  C8  UNL     1      18.891  53.786  -4.981  0.00  0.00    +0.022 C 
ATOM     20  C9  UNL     1      20.409  53.828  -5.204  0.00  0.00    +0.002 C 
ATOM     21  C10 UNL     1      20.766  54.440  -6.568  0.00  0.00    +0.000 C 
ATOM     22  C11 UNL     1      21.021  55.951  -6.516  0.00  0.00    +0.000 C 
ATOM     23  C12 UNL     1      20.086  56.765  -5.605  0.00  0.00    +0.002 C 
ATOM     24  C13 UNL     1      18.610  56.324  -5.612  0.00  0.00    +0.022 C 
ENDBRANCH   9  18
ENDBRANCH   4   7
BRANCH   1  26
ATOM     25  C1  UNL     1      22.711  62.181   0.609  0.00  0.00    +0.253 C 
ATOM     26  O1  UNL     1      22.032  61.832  -0.593  0.00  0.00    -0.468 OA
ENDBRANCH   1  26
BRANCH   6  27
ATOM     27  O3  UNL     1      21.568  61.016  -3.161  0.00  0.00    -0.472 OA
BRANCH  27  28
ATOM     28  C23 UNL     1      21.063  60.963  -4.498  0.00  0.00    +0.206 C 
BRANCH  28  29
ATOM     29  C24 UNL     1      20.186  62.189  -4.782  0.00  0.00    +0.051 C 
BRANCH  29  30
ATOM     30  C25 UNL     1      18.716  61.815  -4.986  0.00  0.00    +0.051 C 
BRANCH  30  31
ATOM     31  C26 UNL     1      18.533  60.326  -5.308  0.00  0.00    +0.206 C 
BRANCH  31  32
ATOM     32  O4  UNL     1      18.262  60.120  -6.698  0.00  0.00    -0.475 OA
BRANCH  32  33
ATOM     33  C27 UNL     1      19.123  59.536  -7.646  0.00  0.00    +0.139 A 
ATOM     34  C28 UNL     1      20.481  59.885  -7.775  0.00  0.00    +0.037 A 
ATOM     35  C29 UNL     1      21.283  59.264  -8.738  0.00  0.00    +0.006 A 
ATOM     36  C30 UNL     1      20.753  58.271  -9.580  0.00  0.00    +0.040 A 
ATOM     37  C32 UNL     1      19.394  57.930  -9.453  0.00  0.00    +0.006 A 
ATOM     38  C33 UNL     1      18.594  58.553  -8.491  0.00  0.00    +0.037 A 
BRANCH  36  39
ATOM     39  C31 UNL     1      21.616  57.577 -10.569  0.00  0.00    +0.208 A 
ATOM     40  N3  UNL     1      22.490  58.176 -11.399  0.00  0.00    -0.106 NA
ATOM     41  N4  UNL     1      23.066  57.210 -12.095  0.00  0.00    -0.021 NA
ATOM     42  N5  UNL     1      22.571  56.043 -11.710  0.00  0.00    -0.021 NA
ATOM     43  N6  UNL     1      21.667  56.247 -10.766  0.00  0.00    -0.106 NA
ENDBRANCH  36  39
ENDBRANCH  32  33
ENDBRANCH  31  32
ENDBRANCH  30  31
ENDBRANCH  29  30
ENDBRANCH  28  29
ENDBRANCH  27  28
ENDBRANCH   6  27
TORSDOF 11
ENDMDL
