MODEL 1
REMARK VINA RESULT:      -9.1      0.000      0.000
REMARK  Name = ./threeLigTest/pdb/l0c2.pdb
REMARK  11 active torsions:
REMARK  status: ('A' for Active; 'I' for Inactive)
REMARK    1  A    between atoms: O1_2  and  C2_3
REMARK    2  A    between atoms: C5_6  and  C6_7
REMARK    3  A    between atoms: N2_9  and  C7_10
REMARK    4  A    between atoms: C19_23  and  O3_24
REMARK    5  A    between atoms: O3_24  and  C20_25
REMARK    6  A    between atoms: C20_25  and  C21_26
REMARK    7  A    between atoms: C21_26  and  C22_27
REMARK    8  A    between atoms: C22_27  and  C23_28
REMARK    9  A    between atoms: C23_28  and  O4_29
REMARK   10  A    between atoms: O4_29  and  C24_30
REMARK   11  A    between atoms: C27_33  and  C28_34
REMARK                            x       y       z     vdW  Elec       q    Type
REMARK                         _______ _______ _______ _____ _____    ______ ____
ROOT
ATOM      1  C2  UNL     1      18.851  61.840  -4.089  0.00  0.00    +0.172 A 
ATOM      2  C3  UNL     1      17.967  61.493  -5.125  0.00  0.00    +0.040 A 
ATOM      3  C4  UNL     1      18.245  60.410  -5.959  0.00  0.00    +0.005 A 
ATOM      4  C5  UNL     1      19.418  59.651  -5.793  0.00  0.00    +0.019 A 
ATOM      5  C18 UNL     1      20.304  60.013  -4.761  0.00  0.00    +0.041 A 
ATOM      6  C19 UNL     1      20.019  61.090  -3.900  0.00  0.00    +0.172 A 
ENDROOT
BRANCH   4   7
ATOM      7  C6  UNL     1      19.680  58.494  -6.707  0.00  0.00    +0.084 C 
ATOM      8  N1  UNL     1      20.193  58.691  -7.886  0.00  0.00    -0.180 NA
ATOM      9  N2  UNL     1      20.360  57.493  -8.577  0.00  0.00    -0.183 N 
ATOM     10  C14 UNL     1      19.878  56.453  -7.746  0.00  0.00    +0.249 C 
ATOM     11  O2  UNL     1      19.849  55.237  -8.076  0.00  0.00    -0.273 OA
ATOM     12  C15 UNL     1      19.384  57.013  -6.450  0.00  0.00    +0.107 C 
ATOM     13  C16 UNL     1      17.880  56.722  -6.327  0.00  0.00    +0.015 C 
ATOM     14  C17 UNL     1      20.206  56.425  -5.292  0.00  0.00    +0.015 C 
BRANCH   9  15
ATOM     15  C7  UNL     1      20.664  57.433 -10.010  0.00  0.00    +0.099 C 
ATOM     16  C8  UNL     1      20.608  58.850 -10.646  0.00  0.00    +0.022 C 
ATOM     17  C9  UNL     1      21.959  59.504 -10.988  0.00  0.00    +0.002 C 
ATOM     18  C10 UNL     1      22.548  58.991 -12.311  0.00  0.00    +0.000 C 
ATOM     19  C11 UNL     1      23.272  57.647 -12.172  0.00  0.00    +0.000 C 
ATOM     20  C12 UNL     1      22.356  56.506 -11.714  0.00  0.00    +0.002 C 
ATOM     21  C13 UNL     1      21.963  56.630 -10.233  0.00  0.00    +0.022 C 
ENDBRANCH   9  15
ENDBRANCH   4   7
BRANCH   1  23
ATOM     22  C1  UNL     1      17.410  63.697  -3.230  0.00  0.00    +0.253 C 
ATOM     23  O1  UNL     1      18.604  62.919  -3.227  0.00  0.00    -0.468 OA
ENDBRANCH   1  23
BRANCH   6  24
ATOM     24  O3  UNL     1      20.872  61.456  -2.844  0.00  0.00    -0.472 OA
BRANCH  24  25
ATOM     25  C20 UNL     1      21.142  60.675  -1.676  0.00  0.00    +0.206 C 
BRANCH  25  26
ATOM     26  C21 UNL     1      21.786  61.521  -0.569  0.00  0.00    +0.051 C 
BRANCH  26  27
ATOM     27  C22 UNL     1      22.628  62.663  -1.153  0.00  0.00    +0.051 C 
BRANCH  27  28
ATOM     28  C23 UNL     1      21.952  64.032  -1.005  0.00  0.00    +0.206 C 
BRANCH  28  29
ATOM     29  O4  UNL     1      20.957  64.231  -2.015  0.00  0.00    -0.475 OA
BRANCH  29  30
ATOM     30  C24 UNL     1      20.709  65.418  -2.726  0.00  0.00    +0.139 A 
ATOM     31  C25 UNL     1      21.560  65.728  -3.792  0.00  0.00    +0.037 A 
ATOM     32  C26 UNL     1      21.374  66.894  -4.539  0.00  0.00    +0.006 A 
ATOM     33  C27 UNL     1      20.328  67.778  -4.231  0.00  0.00    +0.040 A 
ATOM     34  C29 UNL     1      19.473  67.471  -3.158  0.00  0.00    +0.006 A 
ATOM     35  C30 UNL     1      19.661  66.304  -2.411  0.00  0.00    +0.037 A 
BRANCH  33  36
ATOM     36  C28 UNL     1      20.109  68.990  -5.045  0.00  0.00    +0.208 A 
ATOM     37  N3  UNL     1      19.151  69.910  -4.803  0.00  0.00    -0.106 NA
ATOM     38  N4  UNL     1      19.276  70.798  -5.775  0.00  0.00    -0.021 NA
ATOM     39  N5  UNL     1      20.266  70.431  -6.571  0.00  0.00    -0.021 NA
ATOM     40  N6  UNL     1      20.809  69.299  -6.155  0.00  0.00    -0.106 NA
ENDBRANCH  33  36
ENDBRANCH  29  30
ENDBRANCH  28  29
ENDBRANCH  27  28
ENDBRANCH  26  27
ENDBRANCH  25  26
ENDBRANCH  24  25
ENDBRANCH   6  24
TORSDOF 11
ENDMDL
MODEL 2
REMARK VINA RESULT:      -8.0      1.995      3.678
REMARK  Name = ./threeLigTest/pdb/l0c2.pdb
REMARK  11 active torsions:
REMARK  status: ('A' for Active; 'I' for Inactive)
REMARK    1  A    between atoms: O1_2  and  C2_3
REMARK    2  A    between atoms: C5_6  and  C6_7
REMARK    3  A    between atoms: N2_9  and  C7_10
REMARK    4  A    between atoms: C19_23  and  O3_24
REMARK    5  A    between atoms: O3_24  and  C20_25
REMARK    6  A    between atoms: C20_25  and  C21_26
REMARK    7  A    between atoms: C21_26  and  C22_27
REMARK    8  A    between atoms: C22_27  and  C23_28
REMARK    9  A    between atoms: C23_28  and  O4_29
REMARK   10  A    between atoms: O4_29  and  C24_30
REMARK   11  A    between atoms: C27_33  and  C28_34
REMARK                            x       y       z     vdW  Elec       q    Type
REMARK                         _______ _______ _______ _____ _____    ______ ____
ROOT
ATOM      1  C2  UNL     1      18.345  61.730  -4.635  0.00  0.00    +0.172 A 
ATOM      2  C3  UNL     1      17.507  61.427  -5.721  0.00  0.00    +0.040 A 
ATOM      3  C4  UNL     1      17.601  60.193  -6.365  0.00  0.00    +0.005 A 
ATOM      4  C5  UNL     1      18.541  59.232  -5.952  0.00  0.00    +0.019 A 
ATOM      5  C18 UNL     1      19.386  59.548  -4.873  0.00  0.00    +0.041 A 
ATOM      6  C19 UNL     1      19.281  60.782  -4.202  0.00  0.00    +0.172 A 
ENDROOT
BRANCH   4   7
ATOM      7  C6  UNL     1      18.609  57.918  -6.667  0.00  0.00    +0.084 C 
ATOM      8  N1  UNL     1      17.543  57.409  -7.210  0.00  0.00    -0.180 NA
ATOM      9  N2  UNL     1      17.816  56.189  -7.826  0.00  0.00    -0.183 N 
ATOM     10  C14 UNL     1      19.187  55.907  -7.620  0.00  0.00    +0.249 C 
ATOM     11  O2  UNL     1      19.764  54.860  -8.020  0.00  0.00    -0.273 OA
ATOM     12  C15 UNL     1      19.831  57.008  -6.839  0.00  0.00    +0.107 C 
ATOM     13  C16 UNL     1      20.337  56.439  -5.505  0.00  0.00    +0.015 C 
ATOM     14  C17 UNL     1      20.946  57.649  -7.681  0.00  0.00    +0.015 C 
BRANCH   9  15
ATOM     15  C7  UNL     1      16.766  55.272  -8.281  0.00  0.00    +0.099 C 
ATOM     16  C8  UNL     1      15.835  54.869  -7.104  0.00  0.00    +0.022 C 
ATOM     17  C9  UNL     1      14.438  55.515  -7.079  0.00  0.00    +0.002 C 
ATOM     18  C10 UNL     1      13.448  54.825  -8.029  0.00  0.00    +0.000 C 
ATOM     19  C11 UNL     1      13.593  55.274  -9.488  0.00  0.00    +0.000 C 
ATOM     20  C12 UNL     1      14.964  54.949 -10.092  0.00  0.00    +0.002 C 
ATOM     21  C13 UNL     1      16.077  55.852  -9.535  0.00  0.00    +0.022 C 
ENDBRANCH   9  15
ENDBRANCH   4   7
BRANCH   1  23
ATOM     22  C1  UNL     1      17.074  63.548  -3.476  0.00  0.00    +0.253 C 
ATOM     23  O1  UNL     1      18.278  62.958  -3.959  0.00  0.00    -0.468 OA
ENDBRANCH   1  23
BRANCH   6  24
ATOM     24  O3  UNL     1      20.093  61.112  -3.102  0.00  0.00    -0.472 OA
BRANCH  24  25
ATOM     25  C20 UNL     1      21.507  60.910  -3.014  0.00  0.00    +0.206 C 
BRANCH  25  26
ATOM     26  C21 UNL     1      22.051  61.330  -1.642  0.00  0.00    +0.051 C 
BRANCH  26  27
ATOM     27  C22 UNL     1      22.664  62.736  -1.686  0.00  0.00    +0.051 C 
BRANCH  27  28
ATOM     28  C23 UNL     1      21.737  63.805  -1.093  0.00  0.00    +0.206 C 
BRANCH  28  29
ATOM     29  O4  UNL     1      20.669  64.122  -1.993  0.00  0.00    -0.475 OA
BRANCH  29  30
ATOM     30  C24 UNL     1      20.508  65.317  -2.714  0.00  0.00    +0.139 A 
ATOM     31  C25 UNL     1      21.434  65.598  -3.724  0.00  0.00    +0.037 A 
ATOM     32  C26 UNL     1      21.335  66.771  -4.478  0.00  0.00    +0.006 A 
ATOM     33  C27 UNL     1      20.303  67.690  -4.233  0.00  0.00    +0.040 A 
ATOM     34  C29 UNL     1      19.373  67.413  -3.217  0.00  0.00    +0.006 A 
ATOM     35  C30 UNL     1      19.473  66.239  -2.463  0.00  0.00    +0.037 A 
BRANCH  33  36
ATOM     36  C28 UNL     1      20.177  68.910  -5.056  0.00  0.00    +0.208 A 
ATOM     37  N3  UNL     1      20.952  69.195  -6.123  0.00  0.00    -0.106 NA
ATOM     38  N4  UNL     1      20.537  70.379  -6.542  0.00  0.00    -0.021 NA
ATOM     39  N5  UNL     1      19.555  70.794  -5.759  0.00  0.00    -0.021 NA
ATOM     40  N6  UNL     1      19.304  69.907  -4.811  0.00  0.00    -0.106 NA
ENDBRANCH  33  36
ENDBRANCH  29  30
ENDBRANCH  28  29
ENDBRANCH  27  28
ENDBRANCH  26  27
ENDBRANCH  25  26
ENDBRANCH  24  25
ENDBRANCH   6  24
TORSDOF 11
ENDMDL
MODEL 3
REMARK VINA RESULT:      -6.6      1.437      2.057
REMARK  Name = ./threeLigTest/pdb/l0c2.pdb
REMARK  11 active torsions:
REMARK  status: ('A' for Active; 'I' for Inactive)
REMARK    1  A    between atoms: O1_2  and  C2_3
REMARK    2  A    between atoms: C5_6  and  C6_7
REMARK    3  A    between atoms: N2_9  and  C7_10
REMARK    4  A    between atoms: C19_23  and  O3_24
REMARK    5  A    between atoms: O3_24  and  C20_25
REMARK    6  A    between atoms: C20_25  and  C21_26
REMARK    7  A    between atoms: C21_26  and  C22_27
REMARK    8  A    between atoms: C22_27  and  C23_28
REMARK    9  A    between atoms: C23_28  and  O4_29
REMARK   10  A    between atoms: O4_29  and  C24_30
REMARK   11  A    between atoms: C27_33  and  C28_34
REMARK                            x       y       z     vdW  Elec       q    Type
REMARK                         _______ _______ _______ _____ _____    ______ ____
ROOT
ATOM      1  C2  UNL     1      19.046  61.026  -4.473  0.00  0.00    +0.172 A 
ATOM      2  C3  UNL     1      18.583  60.554  -5.713  0.00  0.00    +0.040 A 
ATOM      3  C4  UNL     1      18.925  59.276  -6.156  0.00  0.00    +0.005 A 
ATOM      4  C5  UNL     1      19.748  58.438  -5.382  0.00  0.00    +0.019 A 
ATOM      5  C18 UNL     1      20.218  58.923  -4.148  0.00  0.00    +0.041 A 
ATOM      6  C19 UNL     1      19.858  60.203  -3.682  0.00  0.00    +0.172 A 
ENDROOT
BRANCH   4   7
ATOM      7  C6  UNL     1      20.090  57.072  -5.891  0.00  0.00    +0.084 C 
ATOM      8  N1  UNL     1      20.711  56.929  -7.025  0.00  0.00    -0.180 NA
ATOM      9  N2  UNL     1      20.938  55.586  -7.318  0.00  0.00    -0.183 N 
ATOM     10  C14 UNL     1      20.378  54.822  -6.266  0.00  0.00    +0.249 C 
ATOM     11  O2  UNL     1      20.377  53.562  -6.227  0.00  0.00    -0.273 OA
ATOM     12  C15 UNL     1      19.767  55.722  -5.240  0.00  0.00    +0.107 C 
ATOM     13  C16 UNL     1      18.258  55.444  -5.172  0.00  0.00    +0.015 C 
ATOM     14  C17 UNL     1      20.477  55.518  -3.892  0.00  0.00    +0.015 C 
BRANCH   9  15
ATOM     15  C7  UNL     1      21.373  55.119  -8.638  0.00  0.00    +0.099 C 
ATOM     16  C8  UNL     1      20.408  54.033  -9.186  0.00  0.00    +0.022 C 
ATOM     17  C9  UNL     1      19.450  54.468 -10.310  0.00  0.00    +0.002 C 
ATOM     18  C10 UNL     1      20.124  54.490 -11.689  0.00  0.00    +0.000 C 
ATOM     19  C11 UNL     1      20.944  55.759 -11.944  0.00  0.00    +0.000 C 
ATOM     20  C12 UNL     1      22.112  55.936 -10.965  0.00  0.00    +0.002 C 
ATOM     21  C13 UNL     1      21.638  56.332  -9.557  0.00  0.00    +0.022 C 
ENDBRANCH   9  15
ENDBRANCH   4   7
BRANCH   1  23
ATOM     22  C1  UNL     1      18.763  63.494  -4.771  0.00  0.00    +0.253 C 
ATOM     23  O1  UNL     1      18.721  62.303  -3.990  0.00  0.00    -0.468 OA
ENDBRANCH   1  23
BRANCH   6  24
ATOM     24  O3  UNL     1      20.290  60.701  -2.440  0.00  0.00    -0.472 OA
BRANCH  24  25
ATOM     25  C20 UNL     1      21.309  60.126  -1.616  0.00  0.00    +0.206 C 
BRANCH  25  26
ATOM     26  C21 UNL     1      21.511  60.933  -0.326  0.00  0.00    +0.051 C 
BRANCH  26  27
ATOM     27  C22 UNL     1      22.220  62.265  -0.601  0.00  0.00    +0.051 C 
BRANCH  27  28
ATOM     28  C23 UNL     1      21.248  63.381  -1.004  0.00  0.00    +0.206 C 
BRANCH  28  29
ATOM     29  O4  UNL     1      21.514  63.845  -2.333  0.00  0.00    -0.475 OA
BRANCH  29  30
ATOM     30  C24 UNL     1      21.096  65.063  -2.894  0.00  0.00    +0.139 A 
ATOM     31  C25 UNL     1      21.786  65.534  -4.016  0.00  0.00    +0.037 A 
ATOM     32  C26 UNL     1      21.426  66.740  -4.623  0.00  0.00    +0.006 A 
ATOM     33  C27 UNL     1      20.363  67.503  -4.115  0.00  0.00    +0.040 A 
ATOM     34  C29 UNL     1      19.670  67.036  -2.986  0.00  0.00    +0.006 A 
ATOM     35  C30 UNL     1      20.031  65.829  -2.379  0.00  0.00    +0.037 A 
BRANCH  33  36
ATOM     36  C28 UNL     1      19.959  68.758  -4.780  0.00  0.00    +0.208 A 
ATOM     37  N3  UNL     1      20.603  69.308  -5.830  0.00  0.00    -0.106 NA
ATOM     38  N4  UNL     1      19.945  70.427  -6.089  0.00  0.00    -0.021 NA
ATOM     39  N5  UNL     1      18.947  70.548  -5.230  0.00  0.00    -0.021 NA
ATOM     40  N6  UNL     1      18.925  69.530  -4.387  0.00  0.00    -0.106 NA
ENDBRANCH  33  36
ENDBRANCH  29  30
ENDBRANCH  28  29
ENDBRANCH  27  28
ENDBRANCH  26  27
ENDBRANCH  25  26
ENDBRANCH  24  25
ENDBRANCH   6  24
TORSDOF 11
ENDMDL
