MODEL 1
REMARK VINA RESULT:      -8.3      0.000      0.000
REMARK  Name = ./threeLigTest/pdb/l1c0.pdb
REMARK  11 active torsions:
REMARK  status: ('A' for Active; 'I' for Inactive)
REMARK    1  A    between atoms: O1_2  and  C2_3
REMARK    2  A    between atoms: C5_6  and  C6_7
REMARK    3  A    between atoms: N2_9  and  C7_10
REMARK    4  A    between atoms: C22_26  and  O3_27
REMARK    5  A    between atoms: O3_27  and  C23_28
REMARK    6  A    between atoms: C23_28  and  C24_29
REMARK    7  A    between atoms: C24_29  and  C25_30
REMARK    8  A    between atoms: C25_30  and  C26_31
REMARK    9  A    between atoms: C26_31  and  O4_32
REMARK   10  A    between atoms: O4_32  and  C27_33
REMARK   11  A    between atoms: C30_36  and  C31_37
REMARK                            x       y       z     vdW  Elec       q    Type
REMARK                         _______ _______ _______ _____ _____    ______ ____
ROOT
ATOM      1  C2  UNL     1      19.037  55.420  -4.760  0.00  0.00    +0.172 A 
ATOM      2  C3  UNL     1      19.867  55.809  -3.690  0.00  0.00    +0.040 A 
ATOM      3  C4  UNL     1      20.231  57.148  -3.526  0.00  0.00    +0.005 A 
ATOM      4  C5  UNL     1      19.818  58.112  -4.458  0.00  0.00    +0.018 A 
ATOM      5  C21 UNL     1      18.989  57.726  -5.521  0.00  0.00    +0.041 A 
ATOM      6  C22 UNL     1      18.577  56.388  -5.665  0.00  0.00    +0.172 A 
ENDROOT
BRANCH   4   7
ATOM      7  C6  UNL     1      20.126  59.545  -4.268  0.00  0.00    +0.077 C 
ATOM      8  N1  UNL     1      20.436  59.925  -3.060  0.00  0.00    -0.180 NA
ATOM      9  N2  UNL     1      20.853  61.230  -2.731  0.00  0.00    -0.183 N 
ATOM     10  C14 UNL     1      20.725  62.266  -3.718  0.00  0.00    +0.244 C 
ATOM     11  O2  UNL     1      21.174  63.423  -3.509  0.00  0.00    -0.273 OA
ATOM     12  C15 UNL     1      19.936  61.970  -4.958  0.00  0.00    +0.089 C 
ATOM     13  C16 UNL     1      18.428  62.162  -4.645  0.00  0.00    +0.035 C 
ATOM     14  C17 UNL     1      17.502  61.425  -5.576  0.00  0.00    -0.030 C 
ATOM     15  C18 UNL     1      17.919  60.462  -6.407  0.00  0.00    -0.030 C 
ATOM     16  C19 UNL     1      19.377  60.215  -6.660  0.00  0.00    +0.032 C 
ATOM     17  C20 UNL     1      20.256  60.531  -5.427  0.00  0.00    +0.055 C 
BRANCH   9  18
ATOM     18  C7  UNL     1      21.132  61.552  -1.323  0.00  0.00    +0.099 C 
ATOM     19  C8  UNL     1      22.590  62.062  -1.175  0.00  0.00    +0.022 C 
ATOM     20  C9  UNL     1      22.836  63.017   0.007  0.00  0.00    +0.002 C 
ATOM     21  C10 UNL     1      22.109  62.688   1.322  0.00  0.00    +0.000 C 
ATOM     22  C11 UNL     1      22.018  61.189   1.642  0.00  0.00    +0.000 C 
ATOM     23  C12 UNL     1      20.766  60.546   1.025  0.00  0.00    +0.002 C 
ATOM     24  C13 UNL     1      20.894  60.280  -0.479  0.00  0.00    +0.022 C 
ENDBRANCH   9  18
ENDBRANCH   4   7
BRANCH   1  26
ATOM     25  C1  UNL     1      17.371  53.567  -4.519  0.00  0.00    +0.253 C 
ATOM     26  O1  UNL     1      18.627  54.088  -4.939  0.00  0.00    -0.468 OA
ENDBRANCH   1  26
BRANCH   6  27
ATOM     27  O3  UNL     1      17.694  55.987  -6.682  0.00  0.00    -0.472 OA
BRANCH  27  28
ATOM     28  C23 UNL     1      18.056  55.781  -8.050  0.00  0.00    +0.206 C 
BRANCH  28  29
ATOM     29  C24 UNL     1      18.009  54.283  -8.393  0.00  0.00    +0.051 C 
BRANCH  29  30
ATOM     30  C25 UNL     1      19.367  53.717  -8.838  0.00  0.00    +0.051 C 
BRANCH  30  31
ATOM     31  C26 UNL     1      20.503  54.023  -7.857  0.00  0.00    +0.206 C 
BRANCH  31  32
ATOM     32  O4  UNL     1      21.616  54.588  -8.547  0.00  0.00    -0.475 OA
BRANCH  32  33
ATOM     33  C27 UNL     1      21.593  55.819  -9.218  0.00  0.00    +0.139 A 
ATOM     34  C28 UNL     1      21.360  56.977  -8.472  0.00  0.00    +0.037 A 
ATOM     35  C29 UNL     1      21.343  58.231  -9.089  0.00  0.00    +0.006 A 
ATOM     36  C30 UNL     1      21.557  58.349 -10.475  0.00  0.00    +0.040 A 
ATOM     37  C32 UNL     1      21.790  57.182 -11.224  0.00  0.00    +0.006 A 
ATOM     38  C33 UNL     1      21.805  55.929 -10.604  0.00  0.00    +0.037 A 
BRANCH  36  39
ATOM     39  C31 UNL     1      21.544  59.680 -11.135  0.00  0.00    +0.208 A 
ATOM     40  N3  UNL     1      21.922  59.927 -12.405  0.00  0.00    -0.106 NA
ATOM     41  N4  UNL     1      21.740  61.223 -12.603  0.00  0.00    -0.021 NA
ATOM     42  N5  UNL     1      21.265  61.770 -11.492  0.00  0.00    -0.021 NA
ATOM     43  N6  UNL     1      21.137  60.832 -10.565  0.00  0.00    -0.106 NA
ENDBRANCH  36  39
ENDBRANCH  32  33
ENDBRANCH  31  32
ENDBRANCH  30  31
ENDBRANCH  29  30
ENDBRANCH  28  29
ENDBRANCH  27  28
ENDBRANCH   6  27
TORSDOF 11
ENDMDL
MODEL 2
REMARK VINA RESULT:      -6.1      3.066      4.690
REMARK  Name = ./threeLigTest/pdb/l1c0.pdb
REMARK  11 active torsions:
REMARK  status: ('A' for Active; 'I' for Inactive)
REMARK    1  A    between atoms: O1_2  and  C2_3
REMARK    2  A    between atoms: C5_6  and  C6_7
REMARK    3  A    between atoms: N2_9  and  C7_10
REMARK    4  A    between atoms: C22_26  and  O3_27
REMARK    5  A    between atoms: O3_27  and  C23_28
REMARK    6  A    between atoms: C23_28  and  C24_29
REMARK    7  A    between atoms: C24_29  and  C25_30
REMARK    8  A    between atoms: C25_30  and  C26_31
REMARK    9  A    between atoms: C26_31  and  O4_32
REMARK   10  A    between atoms: O4_32  and  C27_33
REMARK   11  A    between atoms: C30_36  and  C31_37
REMARK                            x       y       z     vdW  Elec       q    Type
REMARK                         _______ _______ _______ _____ _____    ______ ____
ROOT
ATOM      1  C2  UNL     1      19.780  57.336  -5.930  0.00  0.00    +0.172 A 
ATOM      2  C3  UNL     1      19.755  57.491  -4.530  0.00  0.00    +0.040 A 
ATOM      3  C4  UNL     1      19.956  58.748  -3.953  0.00  0.00    +0.005 A 
ATOM      4  C5  UNL     1      20.241  59.859  -4.760  0.00  0.00    +0.018 A 
ATOM      5  C21 UNL     1      20.263  59.706  -6.154  0.00  0.00    +0.041 A 
ATOM      6  C22 UNL     1      20.012  58.454  -6.746  0.00  0.00    +0.172 A 
ENDROOT
BRANCH   4   7
ATOM      7  C6  UNL     1      20.384  61.212  -4.181  0.00  0.00    +0.077 C 
ATOM      8  N1  UNL     1      21.006  61.301  -3.039  0.00  0.00    -0.180 NA
ATOM      9  N2  UNL     1      21.314  62.522  -2.406  0.00  0.00    -0.183 N 
ATOM     10  C14 UNL     1      20.728  63.730  -2.915  0.00  0.00    +0.244 C 
ATOM     11  O2  UNL     1      21.048  64.855  -2.449  0.00  0.00    -0.273 OA
ATOM     12  C15 UNL     1      19.634  63.614  -3.934  0.00  0.00    +0.089 C 
ATOM     13  C16 UNL     1      18.295  63.344  -3.197  0.00  0.00    +0.035 C 
ATOM     14  C17 UNL     1      17.236  62.698  -4.051  0.00  0.00    -0.030 C 
ATOM     15  C18 UNL     1      17.499  62.136  -5.236  0.00  0.00    -0.030 C 
ATOM     16  C19 UNL     1      18.819  62.326  -5.925  0.00  0.00    +0.032 C 
ATOM     17  C20 UNL     1      19.991  62.485  -4.929  0.00  0.00    +0.055 C 
BRANCH   9  18
ATOM     18  C7  UNL     1      21.981  62.493  -1.095  0.00  0.00    +0.099 C 
ATOM     19  C8  UNL     1      23.452  62.031  -1.260  0.00  0.00    +0.022 C 
ATOM     20  C9  UNL     1      24.428  62.549  -0.188  0.00  0.00    +0.002 C 
ATOM     21  C10 UNL     1      23.903  62.600   1.257  0.00  0.00    +0.000 C 
ATOM     22  C11 UNL     1      22.999  61.421   1.647  0.00  0.00    +0.000 C 
ATOM     23  C12 UNL     1      21.524  61.696   1.317  0.00  0.00    +0.002 C 
ATOM     24  C13 UNL     1      21.192  61.538  -0.171  0.00  0.00    +0.022 C 
ENDBRANCH   9  18
ENDBRANCH   4   7
BRANCH   1  26
ATOM     25  C1  UNL     1      20.083  54.857  -6.084  0.00  0.00    +0.253 C 
ATOM     26  O1  UNL     1      19.554  56.094  -6.547  0.00  0.00    -0.468 OA
ENDBRANCH   1  26
BRANCH   6  27
ATOM     27  O3  UNL     1      19.963  58.287  -8.140  0.00  0.00    -0.472 OA
BRANCH  27  28
ATOM     28  C23 UNL     1      20.997  58.671  -9.050  0.00  0.00    +0.206 C 
BRANCH  28  29
ATOM     29  C24 UNL     1      21.829  57.444  -9.458  0.00  0.00    +0.051 C 
BRANCH  29  30
ATOM     30  C25 UNL     1      21.019  56.138  -9.482  0.00  0.00    +0.051 C 
BRANCH  30  31
ATOM     31  C26 UNL     1      20.582  55.720 -10.889  0.00  0.00    +0.206 C 
BRANCH  31  32
ATOM     32  O4  UNL     1      19.569  54.720 -10.818  0.00  0.00    -0.475 OA
BRANCH  32  33
ATOM     33  C27 UNL     1      18.501  54.734  -9.908  0.00  0.00    +0.139 A 
ATOM     34  C28 UNL     1      18.365  53.655  -9.031  0.00  0.00    +0.037 A 
ATOM     35  C29 UNL     1      17.328  53.626  -8.093  0.00  0.00    +0.006 A 
ATOM     36  C30 UNL     1      16.401  54.683  -8.019  0.00  0.00    +0.040 A 
ATOM     37  C32 UNL     1      16.540  55.766  -8.904  0.00  0.00    +0.006 A 
ATOM     38  C33 UNL     1      17.578  55.791  -9.841  0.00  0.00    +0.037 A 
BRANCH  36  39
ATOM     39  C31 UNL     1      15.301  54.658  -7.021  0.00  0.00    +0.208 A 
ATOM     40  N3  UNL     1      14.055  55.134  -7.220  0.00  0.00    -0.106 NA
ATOM     41  N4  UNL     1      13.385  54.902  -6.101  0.00  0.00    -0.021 NA
ATOM     42  N5  UNL     1      14.186  54.301  -5.232  0.00  0.00    -0.021 NA
ATOM     43  N6  UNL     1      15.382  54.141  -5.779  0.00  0.00    -0.106 NA
ENDBRANCH  36  39
ENDBRANCH  32  33
ENDBRANCH  31  32
ENDBRANCH  30  31
ENDBRANCH  29  30
ENDBRANCH  28  29
ENDBRANCH  27  28
ENDBRANCH   6  27
TORSDOF 11
ENDMDL
MODEL 3
REMARK VINA RESULT:      -5.4      3.108      5.241
REMARK  Name = ./threeLigTest/pdb/l1c0.pdb
REMARK  11 active torsions:
REMARK  status: ('A' for Active; 'I' for Inactive)
REMARK    1  A    between atoms: O1_2  and  C2_3
REMARK    2  A    between atoms: C5_6  and  C6_7
REMARK    3  A    between atoms: N2_9  and  C7_10
REMARK    4  A    between atoms: C22_26  and  O3_27
REMARK    5  A    between atoms: O3_27  and  C23_28
REMARK    6  A    between atoms: C23_28  and  C24_29
REMARK    7  A    between atoms: C24_29  and  C25_30
REMARK    8  A    between atoms: C25_30  and  C26_31
REMARK    9  A    between atoms: C26_31  and  O4_32
REMARK   10  A    between atoms: O4_32  and  C27_33
REMARK   11  A    between atoms: C30_36  and  C31_37
REMARK                            x       y       z     vdW  Elec       q    Type
REMARK                         _______ _______ _______ _____ _____    ______ ____
ROOT
ATOM      1  C2  UNL     1      19.545  58.204  -6.236  0.00  0.00    +0.172 A 
ATOM      2  C3  UNL     1      19.183  58.310  -4.879  0.00  0.00    +0.040 A 
ATOM      3  C4  UNL     1      19.451  59.480  -4.164  0.00  0.00    +0.005 A 
ATOM      4  C5  UNL     1      20.135  60.541  -4.775  0.00  0.00    +0.018 A 
ATOM      5  C21 UNL     1      20.492  60.438  -6.127  0.00  0.00    +0.041 A 
ATOM      6  C22 UNL     1      20.181  59.282  -6.869  0.00  0.00    +0.172 A 
ENDROOT
BRANCH   4   7
ATOM      7  C6  UNL     1      20.365  61.817  -4.064  0.00  0.00    +0.077 C 
ATOM      8  N1  UNL     1      21.045  61.758  -2.954  0.00  0.00    -0.180 NA
ATOM      9  N2  UNL     1      21.436  62.891  -2.213  0.00  0.00    -0.183 N 
ATOM     10  C14 UNL     1      20.880  64.169  -2.559  0.00  0.00    +0.244 C 
ATOM     11  O2  UNL     1      21.271  65.224  -1.994  0.00  0.00    -0.273 OA
ATOM     12  C15 UNL     1      19.734  64.206  -3.525  0.00  0.00    +0.089 C 
ATOM     13  C16 UNL     1      18.421  63.910  -2.752  0.00  0.00    +0.035 C 
ATOM     14  C17 UNL     1      17.295  63.400  -3.612  0.00  0.00    -0.030 C 
ATOM     15  C18 UNL     1      17.475  62.960  -4.863  0.00  0.00    -0.030 C 
ATOM     16  C19 UNL     1      18.768  63.172  -5.596  0.00  0.00    +0.032 C 
ATOM     17  C20 UNL     1      19.992  63.177  -4.652  0.00  0.00    +0.055 C 
BRANCH   9  18
ATOM     18  C7  UNL     1      22.163  62.695  -0.949  0.00  0.00    +0.099 C 
ATOM     19  C8  UNL     1      23.566  62.098  -1.233  0.00  0.00    +0.022 C 
ATOM     20  C9  UNL     1      24.647  62.431  -0.188  0.00  0.00    +0.002 C 
ATOM     21  C10 UNL     1      24.206  62.426   1.286  0.00  0.00    +0.000 C 
ATOM     22  C11 UNL     1      23.203  61.321   1.647  0.00  0.00    +0.000 C 
ATOM     23  C12 UNL     1      21.750  61.771   1.425  0.00  0.00    +0.002 C 
ATOM     24  C13 UNL     1      21.326  61.760  -0.048  0.00  0.00    +0.022 C 
ENDBRANCH   9  18
ENDBRANCH   4   7
BRANCH   1  26
ATOM     25  C1  UNL     1      18.076  56.857  -7.750  0.00  0.00    +0.253 C 
ATOM     26  O1  UNL     1      19.266  57.054  -6.995  0.00  0.00    -0.468 OA
ENDBRANCH   1  26
BRANCH   6  27
ATOM     27  O3  UNL     1      20.469  59.179  -8.240  0.00  0.00    -0.472 OA
BRANCH  27  28
ATOM     28  C23 UNL     1      21.622  58.539  -8.791  0.00  0.00    +0.206 C 
BRANCH  28  29
ATOM     29  C24 UNL     1      21.213  57.271  -9.558  0.00  0.00    +0.051 C 
BRANCH  29  30
ATOM     30  C25 UNL     1      21.838  55.987  -8.990  0.00  0.00    +0.051 C 
BRANCH  30  31
ATOM     31  C26 UNL     1      20.887  54.786  -9.014  0.00  0.00    +0.206 C 
BRANCH  31  32
ATOM     32  O4  UNL     1      21.093  53.968  -7.865  0.00  0.00    -0.475 OA
BRANCH  32  33
ATOM     33  C27 UNL     1      20.436  54.141  -6.638  0.00  0.00    +0.139 A 
ATOM     34  C28 UNL     1      21.130  54.764  -5.598  0.00  0.00    +0.037 A 
ATOM     35  C29 UNL     1      20.517  54.976  -4.359  0.00  0.00    +0.006 A 
ATOM     36  C30 UNL     1      19.191  54.561  -4.138  0.00  0.00    +0.040 A 
ATOM     37  C32 UNL     1      18.495  53.933  -5.186  0.00  0.00    +0.006 A 
ATOM     38  C33 UNL     1      19.112  53.722  -6.423  0.00  0.00    +0.037 A 
BRANCH  36  39
ATOM     39  C31 UNL     1      18.534  54.788  -2.824  0.00  0.00    +0.208 A 
ATOM     40  N3  UNL     1      17.289  55.276  -2.647  0.00  0.00    -0.106 NA
ATOM     41  N4  UNL     1      17.083  55.303  -1.339  0.00  0.00    -0.021 NA
ATOM     42  N5  UNL     1      18.163  54.848  -0.720  0.00  0.00    -0.021 NA
ATOM     43  N6  UNL     1      19.080  54.525  -1.620  0.00  0.00    -0.106 NA
ENDBRANCH  36  39
ENDBRANCH  32  33
ENDBRANCH  31  32
ENDBRANCH  30  31
ENDBRANCH  29  30
ENDBRANCH  28  29
ENDBRANCH  27  28
ENDBRANCH   6  27
TORSDOF 11
ENDMDL
MODEL 4
REMARK VINA RESULT:      -5.4      3.654      8.409
REMARK  Name = ./threeLigTest/pdb/l1c0.pdb
REMARK  11 active torsions:
REMARK  status: ('A' for Active; 'I' for Inactive)
REMARK    1  A    between atoms: O1_2  and  C2_3
REMARK    2  A    between atoms: C5_6  and  C6_7
REMARK    3  A    between atoms: N2_9  and  C7_10
REMARK    4  A    between atoms: C22_26  and  O3_27
REMARK    5  A    between atoms: O3_27  and  C23_28
REMARK    6  A    between atoms: C23_28  and  C24_29
REMARK    7  A    between atoms: C24_29  and  C25_30
REMARK    8  A    between atoms: C25_30  and  C26_31
REMARK    9  A    between atoms: C26_31  and  O4_32
REMARK   10  A    between atoms: O4_32  and  C27_33
REMARK   11  A    between atoms: C30_36  and  C31_37
REMARK                            x       y       z     vdW  Elec       q    Type
REMARK                         _______ _______ _______ _____ _____    ______ ____
ROOT
ATOM      1  C2  UNL     1      20.982  58.258 -10.463  0.00  0.00    +0.172 A 
ATOM      2  C3  UNL     1      20.763  56.882 -10.678  0.00  0.00    +0.040 A 
ATOM      3  C4  UNL     1      19.832  56.184  -9.905  0.00  0.00    +0.005 A 
ATOM      4  C5  UNL     1      19.145  56.832  -8.869  0.00  0.00    +0.018 A 
ATOM      5  C21 UNL     1      19.359  58.201  -8.656  0.00  0.00    +0.041 A 
ATOM      6  C22 UNL     1      20.259  58.924  -9.462  0.00  0.00    +0.172 A 
ENDROOT
BRANCH   4   7
ATOM      7  C6  UNL     1      18.101  56.136  -8.086  0.00  0.00    +0.077 C 
ATOM      8  N1  UNL     1      18.459  55.646  -6.933  0.00  0.00    -0.180 NA
ATOM      9  N2  UNL     1      17.565  55.045  -6.024  0.00  0.00    -0.183 N 
ATOM     10  C14 UNL     1      16.230  54.748  -6.463  0.00  0.00    +0.244 C 
ATOM     11  O2  UNL     1      15.365  54.305  -5.663  0.00  0.00    -0.273 OA
ATOM     12  C15 UNL     1      15.922  54.864  -7.925  0.00  0.00    +0.089 C 
ATOM     13  C16 UNL     1      16.382  53.563  -8.636  0.00  0.00    +0.035 C 
ATOM     14  C17 UNL     1      16.629  53.716 -10.113  0.00  0.00    -0.030 C 
ATOM     15  C18 UNL     1      16.734  54.906 -10.715  0.00  0.00    -0.030 C 
ATOM     16  C19 UNL     1      16.365  56.181 -10.014  0.00  0.00    +0.032 C 
ATOM     17  C20 UNL     1      16.628  56.119  -8.491  0.00  0.00    +0.055 C 
BRANCH   9  18
ATOM     18  C7  UNL     1      18.096  54.487  -4.771  0.00  0.00    +0.099 C 
ATOM     19  C8  UNL     1      17.619  55.342  -3.567  0.00  0.00    +0.022 C 
ATOM     20  C9  UNL     1      17.511  54.590  -2.228  0.00  0.00    +0.002 C 
ATOM     21  C10 UNL     1      18.616  53.565  -1.921  0.00  0.00    +0.000 C 
ATOM     22  C11 UNL     1      20.021  53.989  -2.373  0.00  0.00    +0.000 C 
ATOM     23  C12 UNL     1      20.311  53.565  -3.821  0.00  0.00    +0.002 C 
ATOM     24  C13 UNL     1      19.637  54.462  -4.866  0.00  0.00    +0.022 C 
ENDBRANCH   9  18
ENDBRANCH   4   7
BRANCH   1  26
ATOM     25  C1  UNL     1      22.296  58.648 -12.556  0.00  0.00    +0.253 C 
ATOM     26  O1  UNL     1      21.889  58.999 -11.239  0.00  0.00    -0.468 OA
ENDBRANCH   1  26
BRANCH   6  27
ATOM     27  O3  UNL     1      20.443  60.310  -9.314  0.00  0.00    -0.472 OA
BRANCH  27  28
ATOM     28  C23 UNL     1      20.085  61.065  -8.154  0.00  0.00    +0.206 C 
BRANCH  28  29
ATOM     29  C24 UNL     1      20.995  60.691  -6.973  0.00  0.00    +0.051 C 
BRANCH  29  30
ATOM     30  C25 UNL     1      20.590  59.378  -6.284  0.00  0.00    +0.051 C 
BRANCH  30  31
ATOM     31  C26 UNL     1      19.653  59.582  -5.089  0.00  0.00    +0.206 C 
BRANCH  31  32
ATOM     32  O4  UNL     1      20.279  60.397  -4.102  0.00  0.00    -0.475 OA
BRANCH  32  33
ATOM     33  C27 UNL     1      19.921  61.724  -3.822  0.00  0.00    +0.139 A 
ATOM     34  C28 UNL     1      18.583  62.096  -3.978  0.00  0.00    +0.037 A 
ATOM     35  C29 UNL     1      18.170  63.402  -3.697  0.00  0.00    +0.006 A 
ATOM     36  C30 UNL     1      19.095  64.366  -3.256  0.00  0.00    +0.040 A 
ATOM     37  C32 UNL     1      20.441  63.989  -3.101  0.00  0.00    +0.006 A 
ATOM     38  C33 UNL     1      20.852  62.683  -3.384  0.00  0.00    +0.037 A 
BRANCH  36  39
ATOM     39  C31 UNL     1      18.659  65.754  -2.952  0.00  0.00    +0.208 A 
ATOM     40  N3  UNL     1      19.357  66.651  -2.227  0.00  0.00    -0.106 NA
ATOM     41  N4  UNL     1      18.634  67.760  -2.211  0.00  0.00    -0.021 NA
ATOM     42  N5  UNL     1      17.520  67.562  -2.902  0.00  0.00    -0.021 NA
ATOM     43  N6  UNL     1      17.511  66.323  -3.370  0.00  0.00    -0.106 NA
ENDBRANCH  36  39
ENDBRANCH  32  33
ENDBRANCH  31  32
ENDBRANCH  30  31
ENDBRANCH  29  30
ENDBRANCH  28  29
ENDBRANCH  27  28
ENDBRANCH   6  27
TORSDOF 11
ENDMDL
