MODEL 1
REMARK VINA RESULT:      -8.7      0.000      0.000
REMARK  Name = ./threeLigTest/pdb/l2c3.pdb
REMARK  7 active torsions:
REMARK  status: ('A' for Active; 'I' for Inactive)
REMARK    1  A    between atoms: N5_10  and  C6_11
REMARK    2  A    between atoms: C7_13  and  C8_14
REMARK    3  A    between atoms: C8_14  and  S1_15
REMARK    4  A    between atoms: S1_15  and  C9_16
REMARK    5  A    between atoms: C9_16  and  C10_17
REMARK    6  A    between atoms: C10_17  and  C11_18
REMARK    7  A    between atoms: C11_18  and  C12_20
REMARK                            x       y       z     vdW  Elec       q    Type
REMARK                         _______ _______ _______ _____ _____    ______ ____
ROOT
ATOM      1  C6  UNL     1      19.578  60.182  -7.703  0.00  0.00    +0.241 C 
ATOM      2  O1  UNL     1      20.350  61.177  -7.066  0.00  0.00    -0.332 OA
ATOM      3  C7  UNL     1      19.938  61.264  -5.716  0.00  0.00    +0.161 C 
ATOM      4  C13 UNL     1      18.740  60.330  -5.495  0.00  0.00    +0.214 C 
ATOM      5  O4  UNL     1      17.525  61.044  -5.526  0.00  0.00    -0.218 OA
ATOM      6  C14 UNL     1      18.858  59.358  -6.643  0.00  0.00    +0.234 C 
ATOM      7  O5  UNL     1      17.600  58.920  -7.087  0.00  0.00    -0.216 OA
ENDROOT
BRANCH   1  17
ATOM      8  N1  UNL     1      22.882  57.330 -11.948  0.00  0.00    -0.105 NA
ATOM      9  C1  UNL     1      22.190  58.475 -11.447  0.00  0.00    +0.192 A 
ATOM     10  N2  UNL     1      22.095  59.621 -12.191  0.00  0.00    -0.204 NA
ATOM     11  C2  UNL     1      21.429  60.724 -11.718  0.00  0.00    +0.202 A 
ATOM     12  N3  UNL     1      20.842  60.705 -10.483  0.00  0.00    -0.205 NA
ATOM     13  C3  UNL     1      20.939  59.569  -9.746  0.00  0.00    +0.169 A 
ATOM     14  C4  UNL     1      21.588  58.468 -10.192  0.00  0.00    +0.152 A 
ATOM     15  N4  UNL     1      21.517  57.475  -9.287  0.00  0.00    -0.219 NA
ATOM     16  C5  UNL     1      20.797  58.040  -8.279  0.00  0.00    +0.182 A 
ATOM     17  N5  UNL     1      20.439  59.329  -8.525  0.00  0.00    -0.269 N 
ENDBRANCH   1  17
BRANCH   3  18
ATOM     18  C8  UNL     1      21.115  60.894  -4.799  0.00  0.00    +0.090 C 
BRANCH  18  19
ATOM     19  S1  UNL     1      21.025  61.809  -3.214  0.00  0.00    -0.138 S 
BRANCH  19  20
ATOM     20  C9  UNL     1      20.262  63.333  -3.879  0.00  0.00    +0.060 C 
BRANCH  20  21
ATOM     21  C10 UNL     1      20.659  64.542  -3.020  0.00  0.00    +0.042 C 
BRANCH  21  22
ATOM     22  C11 UNL     1      19.451  65.325  -2.465  0.00  0.00    +0.195 C 
ATOM     23  N6  UNL     1      18.192  64.712  -2.893  0.00  0.00    -0.121 NA
BRANCH  22  24
ATOM     24  C12 UNL     1      19.503  66.771  -2.884  0.00  0.00    +0.382 C 
ATOM     25  O2  UNL     1      20.157  67.107  -3.908  0.00  0.00    -0.244 OA
ATOM     26  O3  UNL     1      18.786  67.734  -2.184  0.00  0.00    -0.244 OA
ENDBRANCH  22  24
ENDBRANCH  21  22
ENDBRANCH  20  21
ENDBRANCH  19  20
ENDBRANCH  18  19
ENDBRANCH   3  18
TORSDOF 7
ENDMDL
MODEL 2
REMARK VINA RESULT:      -7.1      3.271      5.328
REMARK  Name = ./threeLigTest/pdb/l2c3.pdb
REMARK  7 active torsions:
REMARK  status: ('A' for Active; 'I' for Inactive)
REMARK    1  A    between atoms: N5_10  and  C6_11
REMARK    2  A    between atoms: C7_13  and  C8_14
REMARK    3  A    between atoms: C8_14  and  S1_15
REMARK    4  A    between atoms: S1_15  and  C9_16
REMARK    5  A    between atoms: C9_16  and  C10_17
REMARK    6  A    between atoms: C10_17  and  C11_18
REMARK    7  A    between atoms: C11_18  and  C12_20
REMARK                            x       y       z     vdW  Elec       q    Type
REMARK                         _______ _______ _______ _____ _____    ______ ____
ROOT
ATOM      1  C6  UNL     1      19.738  60.226  -7.745  0.00  0.00    +0.241 C 
ATOM      2  O1  UNL     1      20.550  60.967  -6.860  0.00  0.00    -0.332 OA
ATOM      3  C7  UNL     1      19.977  60.901  -5.569  0.00  0.00    +0.161 C 
ATOM      4  C13 UNL     1      18.640  60.151  -5.650  0.00  0.00    +0.214 C 
ATOM      5  O4  UNL     1      17.553  61.048  -5.683  0.00  0.00    -0.218 OA
ATOM      6  C14 UNL     1      18.772  59.370  -6.934  0.00  0.00    +0.234 C 
ATOM      7  O5  UNL     1      17.537  59.220  -7.583  0.00  0.00    -0.216 OA
ENDROOT
BRANCH   1  17
ATOM      8  N1  UNL     1      22.900  57.448 -12.144  0.00  0.00    -0.105 NA
ATOM      9  C1  UNL     1      22.222  58.583 -11.602  0.00  0.00    +0.192 A 
ATOM     10  N2  UNL     1      22.098  59.740 -12.326  0.00  0.00    -0.204 NA
ATOM     11  C2  UNL     1      21.446  60.833 -11.813  0.00  0.00    +0.202 A 
ATOM     12  N3  UNL     1      20.903  60.794 -10.559  0.00  0.00    -0.205 NA
ATOM     13  C3  UNL     1      21.029  59.648  -9.842  0.00  0.00    +0.169 A 
ATOM     14  C4  UNL     1      21.664  58.556 -10.328  0.00  0.00    +0.152 A 
ATOM     15  N4  UNL     1      21.627  57.549  -9.435  0.00  0.00    -0.219 NA
ATOM     16  C5  UNL     1      20.942  58.097  -8.394  0.00  0.00    +0.182 A 
ATOM     17  N5  UNL     1      20.572  59.388  -8.609  0.00  0.00    -0.269 N 
ENDBRANCH   1  17
BRANCH   3  18
ATOM     18  C8  UNL     1      20.955  60.202  -4.611  0.00  0.00    +0.090 C 
BRANCH  18  19
ATOM     19  S1  UNL     1      20.178  59.905  -2.979  0.00  0.00    -0.138 S 
BRANCH  19  20
ATOM     20  C9  UNL     1      20.470  58.099  -2.918  0.00  0.00    +0.060 C 
BRANCH  20  21
ATOM     21  C10 UNL     1      19.943  57.435  -4.198  0.00  0.00    +0.042 C 
BRANCH  21  22
ATOM     22  C11 UNL     1      19.131  56.151  -3.933  0.00  0.00    +0.195 C 
ATOM     23  N6  UNL     1      18.412  56.241  -2.661  0.00  0.00    -0.121 NA
BRANCH  22  24
ATOM     24  C12 UNL     1      20.019  54.934  -3.951  0.00  0.00    +0.382 C 
ATOM     25  O2  UNL     1      19.692  53.906  -3.299  0.00  0.00    -0.244 OA
ATOM     26  O3  UNL     1      21.171  54.914  -4.730  0.00  0.00    -0.244 OA
ENDBRANCH  22  24
ENDBRANCH  21  22
ENDBRANCH  20  21
ENDBRANCH  19  20
ENDBRANCH  18  19
ENDBRANCH   3  18
TORSDOF 7
ENDMDL
MODEL 3
REMARK VINA RESULT:      -6.0      3.289      4.975
REMARK  Name = ./threeLigTest/pdb/l2c3.pdb
REMARK  7 active torsions:
REMARK  status: ('A' for Active; 'I' for Inactive)
REMARK    1  A    between atoms: N5_10  and  C6_11
REMARK    2  A    between atoms: C7_13  and  C8_14
REMARK    3  A    between atoms: C8_14  and  S1_15
REMARK    4  A    between atoms: S1_15  and  C9_16
REMARK    5  A    between atoms: C9_16  and  C10_17
REMARK    6  A    between atoms: C10_17  and  C11_18
REMARK    7  A    between atoms: C11_18  and  C12_20
REMARK                            x       y       z     vdW  Elec       q    Type
REMARK                         _______ _______ _______ _____ _____    ______ ____
ROOT
ATOM      1  C6  UNL     1      19.771  57.621  -8.031  0.00  0.00    +0.241 C 
ATOM      2  O1  UNL     1      21.033  58.187  -7.748  0.00  0.00    -0.332 OA
ATOM      3  C7  UNL     1      20.976  59.568  -8.042  0.00  0.00    +0.161 C 
ATOM      4  C13 UNL     1      19.610  59.897  -8.659  0.00  0.00    +0.214 C 
ATOM      5  O4  UNL     1      19.693  59.979 -10.065  0.00  0.00    -0.218 OA
ATOM      6  C14 UNL     1      18.752  58.741  -8.207  0.00  0.00    +0.234 C 
ATOM      7  O5  UNL     1      17.774  58.413  -9.158  0.00  0.00    -0.216 OA
ENDROOT
BRANCH   1  17
ATOM      8  N1  UNL     1      18.641  54.607  -2.863  0.00  0.00    -0.105 NA
ATOM      9  C1  UNL     1      18.998  55.789  -3.582  0.00  0.00    +0.192 A 
ATOM     10  N2  UNL     1      19.310  56.947  -2.920  0.00  0.00    -0.204 NA
ATOM     11  C2  UNL     1      19.657  58.086  -3.604  0.00  0.00    +0.202 A 
ATOM     12  N3  UNL     1      19.699  58.091  -4.970  0.00  0.00    -0.205 NA
ATOM     13  C3  UNL     1      19.387  56.943  -5.624  0.00  0.00    +0.169 A 
ATOM     14  C4  UNL     1      19.044  55.807  -4.972  0.00  0.00    +0.152 A 
ATOM     15  N4  UNL     1      18.810  54.811  -5.846  0.00  0.00    -0.219 NA
ATOM     16  C5  UNL     1      19.026  55.410  -7.049  0.00  0.00    +0.182 A 
ATOM     17  N5  UNL     1      19.369  56.722  -6.947  0.00  0.00    -0.269 N 
ENDBRANCH   1  17
BRANCH   3  18
ATOM     18  C8  UNL     1      21.219  60.374  -6.755  0.00  0.00    +0.090 C 
BRANCH  18  19
ATOM     19  S1  UNL     1      19.762  61.406  -6.341  0.00  0.00    -0.138 S 
BRANCH  19  20
ATOM     20  C9  UNL     1      20.450  62.165  -4.825  0.00  0.00    +0.060 C 
BRANCH  20  21
ATOM     21  C10 UNL     1      19.793  63.529  -4.571  0.00  0.00    +0.042 C 
BRANCH  21  22
ATOM     22  C11 UNL     1      19.775  63.935  -3.083  0.00  0.00    +0.195 C 
ATOM     23  N6  UNL     1      18.513  64.590  -2.736  0.00  0.00    -0.121 NA
BRANCH  22  24
ATOM     24  C12 UNL     1      20.942  64.828  -2.751  0.00  0.00    +0.382 C 
ATOM     25  O2  UNL     1      21.704  64.538  -1.790  0.00  0.00    -0.244 OA
ATOM     26  O3  UNL     1      21.220  65.944  -3.532  0.00  0.00    -0.244 OA
ENDBRANCH  22  24
ENDBRANCH  21  22
ENDBRANCH  20  21
ENDBRANCH  19  20
ENDBRANCH  18  19
ENDBRANCH   3  18
TORSDOF 7
ENDMDL
