MODEL 1
REMARK VINA RESULT:      -8.8      0.000      0.000
REMARK  Name = ./threeLigTest/pdb/l2c2.pdb
REMARK  7 active torsions:
REMARK  status: ('A' for Active; 'I' for Inactive)
REMARK    1  A    between atoms: N5_10  and  C6_11
REMARK    2  A    between atoms: C7_13  and  C8_14
REMARK    3  A    between atoms: C8_14  and  S1_15
REMARK    4  A    between atoms: S1_15  and  C9_16
REMARK    5  A    between atoms: C9_16  and  C10_17
REMARK    6  A    between atoms: C10_17  and  C11_18
REMARK    7  A    between atoms: C11_18  and  C12_20
REMARK                            x       y       z     vdW  Elec       q    Type
REMARK                         _______ _______ _______ _____ _____    ______ ____
ROOT
ATOM      1  C6  UNL     1      19.395  59.530  -7.920  0.00  0.00    +0.241 C 
ATOM      2  O1  UNL     1      19.953  60.694  -7.341  0.00  0.00    -0.332 OA
ATOM      3  C7  UNL     1      19.871  60.558  -5.941  0.00  0.00    +0.161 C 
ATOM      4  C13 UNL     1      19.721  59.080  -5.617  0.00  0.00    +0.214 C 
ATOM      5  O4  UNL     1      19.021  58.895  -4.413  0.00  0.00    -0.218 OA
ATOM      6  C14 UNL     1      18.959  58.567  -6.811  0.00  0.00    +0.234 C 
ATOM      7  O5  UNL     1      17.573  58.671  -6.594  0.00  0.00    -0.216 OA
ENDROOT
BRANCH   1  17
ATOM      8  N1  UNL     1      23.172  57.656 -12.311  0.00  0.00    -0.105 NA
ATOM      9  C1  UNL     1      22.322  58.634 -11.708  0.00  0.00    +0.192 A 
ATOM     10  N2  UNL     1      22.090  59.838 -12.319  0.00  0.00    -0.204 NA
ATOM     11  C2  UNL     1      21.262  60.775 -11.753  0.00  0.00    +0.202 A 
ATOM     12  N3  UNL     1      20.649  60.529 -10.556  0.00  0.00    -0.205 NA
ATOM     13  C3  UNL     1      20.890  59.341  -9.946  0.00  0.00    +0.169 A 
ATOM     14  C4  UNL     1      21.694  58.398 -10.489  0.00  0.00    +0.152 A 
ATOM     15  N4  UNL     1      21.724  57.299  -9.714  0.00  0.00    -0.219 NA
ATOM     16  C5  UNL     1      20.901  57.634  -8.683  0.00  0.00    +0.182 A 
ATOM     17  N5  UNL     1      20.384  58.887  -8.791  0.00  0.00    -0.269 N 
ENDBRANCH   1  17
BRANCH   3  18
ATOM     18  C8  UNL     1      21.114  61.163  -5.274  0.00  0.00    +0.090 C 
BRANCH  18  19
ATOM     19  S1  UNL     1      20.691  62.036  -3.722  0.00  0.00    -0.138 S 
BRANCH  19  20
ATOM     20  C9  UNL     1      19.425  63.170  -4.411  0.00  0.00    +0.060 C 
BRANCH  20  21
ATOM     21  C10 UNL     1      18.871  64.106  -3.327  0.00  0.00    +0.042 C 
BRANCH  21  22
ATOM     22  C11 UNL     1      19.391  65.551  -3.452  0.00  0.00    +0.195 C 
ATOM     23  N6  UNL     1      20.678  65.698  -2.768  0.00  0.00    -0.121 NA
BRANCH  22  24
ATOM     24  C12 UNL     1      18.380  66.516  -2.891  0.00  0.00    +0.382 C 
ATOM     25  O2  UNL     1      18.763  67.543  -2.270  0.00  0.00    -0.244 OA
ATOM     26  O3  UNL     1      17.020  66.288  -3.065  0.00  0.00    -0.244 OA
ENDBRANCH  22  24
ENDBRANCH  21  22
ENDBRANCH  20  21
ENDBRANCH  19  20
ENDBRANCH  18  19
ENDBRANCH   3  18
TORSDOF 7
ENDMDL
MODEL 2
REMARK VINA RESULT:      -7.8      1.167      1.970
REMARK  Name = ./threeLigTest/pdb/l2c2.pdb
REMARK  7 active torsions:
REMARK  status: ('A' for Active; 'I' for Inactive)
REMARK    1  A    between atoms: N5_10  and  C6_11
REMARK    2  A    between atoms: C7_13  and  C8_14
REMARK    3  A    between atoms: C8_14  and  S1_15
REMARK    4  A    between atoms: S1_15  and  C9_16
REMARK    5  A    between atoms: C9_16  and  C10_17
REMARK    6  A    between atoms: C10_17  and  C11_18
REMARK    7  A    between atoms: C11_18  and  C12_20
REMARK                            x       y       z     vdW  Elec       q    Type
REMARK                         _______ _______ _______ _____ _____    ______ ____
ROOT
ATOM      1  C6  UNL     1      18.969  59.143  -7.885  0.00  0.00    +0.241 C 
ATOM      2  O1  UNL     1      19.293  60.320  -7.170  0.00  0.00    -0.332 OA
ATOM      3  C7  UNL     1      19.356  59.987  -5.802  0.00  0.00    +0.161 C 
ATOM      4  C13 UNL     1      19.569  58.486  -5.689  0.00  0.00    +0.214 C 
ATOM      5  O4  UNL     1      19.028  57.985  -4.494  0.00  0.00    -0.218 OA
ATOM      6  C14 UNL     1      18.851  57.968  -6.909  0.00  0.00    +0.234 C 
ATOM      7  O5  UNL     1      17.500  57.715  -6.615  0.00  0.00    -0.216 OA
ENDROOT
BRANCH   1  17
ATOM      8  N1  UNL     1      22.933  56.911 -11.930  0.00  0.00    -0.105 NA
ATOM      9  C1  UNL     1      21.738  56.823 -11.151  0.00  0.00    +0.192 A 
ATOM     10  N2  UNL     1      20.963  55.694 -11.177  0.00  0.00    -0.204 NA
ATOM     11  C2  UNL     1      19.823  55.596 -10.419  0.00  0.00    +0.202 A 
ATOM     12  N3  UNL     1      19.429  56.632  -9.618  0.00  0.00    -0.205 NA
ATOM     13  C3  UNL     1      20.192  57.755  -9.604  0.00  0.00    +0.169 A 
ATOM     14  C4  UNL     1      21.324  57.871 -10.334  0.00  0.00    +0.152 A 
ATOM     15  N4  UNL     1      21.918  59.056 -10.103  0.00  0.00    -0.219 NA
ATOM     16  C5  UNL     1      21.082  59.640  -9.201  0.00  0.00    +0.182 A 
ATOM     17  N5  UNL     1      20.006  58.871  -8.885  0.00  0.00    -0.269 N 
ENDBRANCH   1  17
BRANCH   3  18
ATOM     18  C8  UNL     1      20.478  60.774  -5.113  0.00  0.00    +0.090 C 
BRANCH  18  19
ATOM     19  S1  UNL     1      19.888  61.599  -3.588  0.00  0.00    -0.138 S 
BRANCH  19  20
ATOM     20  C9  UNL     1      19.986  63.330  -4.188  0.00  0.00    +0.060 C 
BRANCH  20  21
ATOM     21  C10 UNL     1      19.123  64.264  -3.328  0.00  0.00    +0.042 C 
BRANCH  21  22
ATOM     22  C11 UNL     1      19.370  65.756  -3.620  0.00  0.00    +0.195 C 
ATOM     23  N6  UNL     1      20.713  66.152  -3.189  0.00  0.00    -0.121 NA
BRANCH  22  24
ATOM     24  C12 UNL     1      18.325  66.598  -2.936  0.00  0.00    +0.382 C 
ATOM     25  O2  UNL     1      17.104  66.319  -3.066  0.00  0.00    -0.244 OA
ATOM     26  O3  UNL     1      18.702  67.680  -2.149  0.00  0.00    -0.244 OA
ENDBRANCH  22  24
ENDBRANCH  21  22
ENDBRANCH  20  21
ENDBRANCH  19  20
ENDBRANCH  18  19
ENDBRANCH   3  18
TORSDOF 7
ENDMDL
MODEL 3
REMARK VINA RESULT:      -6.6      1.773      2.070
REMARK  Name = ./threeLigTest/pdb/l2c2.pdb
REMARK  7 active torsions:
REMARK  status: ('A' for Active; 'I' for Inactive)
REMARK    1  A    between atoms: N5_10  and  C6_11
REMARK    2  A    between atoms: C7_13  and  C8_14
REMARK    3  A    between atoms: C8_14  and  S1_15
REMARK    4  A    between atoms: S1_15  and  C9_16
REMARK    5  A    between atoms: C9_16  and  C10_17
REMARK    6  A    between atoms: C10_17  and  C11_18
REMARK    7  A    between atoms: C11_18  and  C12_20
REMARK                            x       y       z     vdW  Elec       q    Type
REMARK                         _______ _______ _______ _____ _____    ______ ____
ROOT
ATOM      1  C6  UNL     1      18.702  57.213  -8.463  0.00  0.00    +0.241 C 
ATOM      2  O1  UNL     1      18.803  58.482  -7.846  0.00  0.00    -0.332 OA
ATOM      3  C7  UNL     1      18.726  58.289  -6.452  0.00  0.00    +0.161 C 
ATOM      4  C13 UNL     1      19.084  56.841  -6.154  0.00  0.00    +0.214 C 
ATOM      5  O4  UNL     1      18.452  56.394  -4.983  0.00  0.00    -0.218 OA
ATOM      6  C14 UNL     1      18.588  56.129  -7.385  0.00  0.00    +0.234 C 
ATOM      7  O5  UNL     1      17.246  55.743  -7.225  0.00  0.00    -0.216 OA
ENDROOT
BRANCH   1  17
ATOM      8  N1  UNL     1      23.376  57.280 -12.362  0.00  0.00    -0.105 NA
ATOM      9  C1  UNL     1      22.363  57.932 -11.593  0.00  0.00    +0.192 A 
ATOM     10  N2  UNL     1      22.179  59.286 -11.676  0.00  0.00    -0.204 NA
ATOM     11  C2  UNL     1      21.197  59.916 -10.952  0.00  0.00    +0.202 A 
ATOM     12  N3  UNL     1      20.379  59.202 -10.121  0.00  0.00    -0.205 NA
ATOM     13  C3  UNL     1      20.573  57.862 -10.029  0.00  0.00    +0.169 A 
ATOM     14  C4  UNL     1      21.526  57.218 -10.740  0.00  0.00    +0.152 A 
ATOM     15  N4  UNL     1      21.476  55.894 -10.509  0.00  0.00    -0.219 NA
ATOM     16  C5  UNL     1      20.448  55.781  -9.624  0.00  0.00    +0.182 A 
ATOM     17  N5  UNL     1      19.882  56.975  -9.300  0.00  0.00    -0.269 N 
ENDBRANCH   1  17
BRANCH   3  18
ATOM     18  C8  UNL     1      19.659  59.267  -5.726  0.00  0.00    +0.090 C 
BRANCH  18  19
ATOM     19  S1  UNL     1      18.762  60.754  -5.147  0.00  0.00    -0.138 S 
BRANCH  19  20
ATOM     20  C9  UNL     1      20.192  61.901  -5.089  0.00  0.00    +0.060 C 
BRANCH  20  21
ATOM     21  C10 UNL     1      19.748  63.322  -4.716  0.00  0.00    +0.042 C 
BRANCH  21  22
ATOM     22  C11 UNL     1      20.386  63.832  -3.409  0.00  0.00    +0.195 C 
ATOM     23  N6  UNL     1      20.588  62.728  -2.467  0.00  0.00    -0.121 NA
BRANCH  22  24
ATOM     24  C12 UNL     1      19.522  64.901  -2.793  0.00  0.00    +0.382 C 
ATOM     25  O2  UNL     1      20.047  65.942  -2.317  0.00  0.00    -0.244 OA
ATOM     26  O3  UNL     1      18.140  64.752  -2.757  0.00  0.00    -0.244 OA
ENDBRANCH  22  24
ENDBRANCH  21  22
ENDBRANCH  20  21
ENDBRANCH  19  20
ENDBRANCH  18  19
ENDBRANCH   3  18
TORSDOF 7
ENDMDL
MODEL 4
REMARK VINA RESULT:      -6.5      3.814      4.667
REMARK  Name = ./threeLigTest/pdb/l2c2.pdb
REMARK  7 active torsions:
REMARK  status: ('A' for Active; 'I' for Inactive)
REMARK    1  A    between atoms: N5_10  and  C6_11
REMARK    2  A    between atoms: C7_13  and  C8_14
REMARK    3  A    between atoms: C8_14  and  S1_15
REMARK    4  A    between atoms: S1_15  and  C9_16
REMARK    5  A    between atoms: C9_16  and  C10_17
REMARK    6  A    between atoms: C10_17  and  C11_18
REMARK    7  A    between atoms: C11_18  and  C12_20
REMARK                            x       y       z     vdW  Elec       q    Type
REMARK                         _______ _______ _______ _____ _____    ______ ____
ROOT
ATOM      1  C6  UNL     1      18.966  60.474  -5.782  0.00  0.00    +0.241 C 
ATOM      2  O1  UNL     1      20.093  61.327  -5.864  0.00  0.00    -0.332 OA
ATOM      3  C7  UNL     1      19.782  62.516  -5.176  0.00  0.00    +0.161 C 
ATOM      4  C13 UNL     1      18.637  62.224  -4.218  0.00  0.00    +0.214 C 
ATOM      5  O4  UNL     1      17.865  63.374  -3.987  0.00  0.00    -0.218 OA
ATOM      6  C14 UNL     1      17.872  61.154  -4.953  0.00  0.00    +0.234 C 
ATOM      7  O5  UNL     1      16.908  61.729  -5.799  0.00  0.00    -0.216 OA
ENDROOT
BRANCH   1  17
ATOM      8  N1  UNL     1      19.744  54.737  -3.901  0.00  0.00    -0.105 NA
ATOM      9  C1  UNL     1      19.266  55.706  -4.837  0.00  0.00    +0.192 A 
ATOM     10  N2  UNL     1      18.552  55.325  -5.942  0.00  0.00    -0.204 NA
ATOM     11  C2  UNL     1      18.077  56.252  -6.836  0.00  0.00    +0.202 A 
ATOM     12  N3  UNL     1      18.309  57.586  -6.645  0.00  0.00    -0.205 NA
ATOM     13  C3  UNL     1      19.028  57.960  -5.557  0.00  0.00    +0.169 A 
ATOM     14  C4  UNL     1      19.498  57.066  -4.657  0.00  0.00    +0.152 A 
ATOM     15  N4  UNL     1      20.130  57.696  -3.649  0.00  0.00    -0.219 NA
ATOM     16  C5  UNL     1      20.014  59.008  -3.994  0.00  0.00    +0.182 A 
ATOM     17  N5  UNL     1      19.354  59.201  -5.168  0.00  0.00    -0.269 N 
ENDBRANCH   1  17
BRANCH   3  18
ATOM     18  C8  UNL     1      21.020  63.044  -4.438  0.00  0.00    +0.090 C 
BRANCH  18  19
ATOM     19  S1  UNL     1      20.828  62.922  -2.622  0.00  0.00    -0.138 S 
BRANCH  19  20
ATOM     20  C9  UNL     1      21.270  64.654  -2.208  0.00  0.00    +0.060 C 
BRANCH  20  21
ATOM     21  C10 UNL     1      20.021  65.542  -2.130  0.00  0.00    +0.042 C 
BRANCH  21  22
ATOM     22  C11 UNL     1      19.822  66.418  -3.382  0.00  0.00    +0.195 C 
ATOM     23  N6  UNL     1      21.108  66.700  -4.025  0.00  0.00    -0.121 NA
BRANCH  22  24
ATOM     24  C12 UNL     1      19.122  67.699  -3.013  0.00  0.00    +0.382 C 
ATOM     25  O2  UNL     1      18.389  67.747  -1.990  0.00  0.00    -0.244 OA
ATOM     26  O3  UNL     1      19.290  68.839  -3.790  0.00  0.00    -0.244 OA
ENDBRANCH  22  24
ENDBRANCH  21  22
ENDBRANCH  20  21
ENDBRANCH  19  20
ENDBRANCH  18  19
ENDBRANCH   3  18
TORSDOF 7
ENDMDL
MODEL 5
REMARK VINA RESULT:      -6.4      1.496      2.065
REMARK  Name = ./threeLigTest/pdb/l2c2.pdb
REMARK  7 active torsions:
REMARK  status: ('A' for Active; 'I' for Inactive)
REMARK    1  A    between atoms: N5_10  and  C6_11
REMARK    2  A    between atoms: C7_13  and  C8_14
REMARK    3  A    between atoms: C8_14  and  S1_15
REMARK    4  A    between atoms: S1_15  and  C9_16
REMARK    5  A    between atoms: C9_16  and  C10_17
REMARK    6  A    between atoms: C10_17  and  C11_18
REMARK    7  A    between atoms: C11_18  and  C12_20
REMARK                            x       y       z     vdW  Elec       q    Type
REMARK                         _______ _______ _______ _____ _____    ______ ____
ROOT
ATOM      1  C6  UNL     1      19.546  59.759  -7.315  0.00  0.00    +0.241 C 
ATOM      2  O1  UNL     1      20.523  60.639  -6.793  0.00  0.00    -0.332 OA
ATOM      3  C7  UNL     1      20.052  61.113  -5.551  0.00  0.00    +0.161 C 
ATOM      4  C13 UNL     1      19.000  60.142  -5.041  0.00  0.00    +0.214 C 
ATOM      5  O4  UNL     1      18.066  60.794  -4.220  0.00  0.00    -0.218 OA
ATOM      6  C14 UNL     1      18.386  59.634  -6.321  0.00  0.00    +0.234 C 
ATOM      7  O5  UNL     1      17.318  60.457  -6.716  0.00  0.00    -0.216 OA
ENDROOT
BRANCH   1  17
ATOM      8  N1  UNL     1      21.954  54.595  -9.458  0.00  0.00    -0.105 NA
ATOM      9  C1  UNL     1      21.581  55.968  -9.596  0.00  0.00    +0.192 A 
ATOM     10  N2  UNL     1      21.754  56.627 -10.784  0.00  0.00    -0.204 NA
ATOM     11  C2  UNL     1      21.383  57.942 -10.928  0.00  0.00    +0.202 A 
ATOM     12  N3  UNL     1      20.834  58.628  -9.880  0.00  0.00    -0.205 NA
ATOM     13  C3  UNL     1      20.676  57.976  -8.701  0.00  0.00    +0.169 A 
ATOM     14  C4  UNL     1      21.025  56.679  -8.538  0.00  0.00    +0.152 A 
ATOM     15  N4  UNL     1      20.719  56.259  -7.297  0.00  0.00    -0.219 NA
ATOM     16  C5  UNL     1      20.175  57.370  -6.728  0.00  0.00    +0.182 A 
ATOM     17  N5  UNL     1      20.147  58.444  -7.562  0.00  0.00    -0.269 N 
ENDBRANCH   1  17
BRANCH   3  18
ATOM     18  C8  UNL     1      21.217  61.261  -4.563  0.00  0.00    +0.090 C 
BRANCH  18  19
ATOM     19  S1  UNL     1      20.798  62.398  -3.190  0.00  0.00    -0.138 S 
BRANCH  19  20
ATOM     20  C9  UNL     1      19.849  63.628  -4.165  0.00  0.00    +0.060 C 
BRANCH  20  21
ATOM     21  C10 UNL     1      19.387  64.797  -3.284  0.00  0.00    +0.042 C 
BRANCH  21  22
ATOM     22  C11 UNL     1      19.895  66.165  -3.779  0.00  0.00    +0.195 C 
ATOM     23  N6  UNL     1      21.331  66.306  -3.524  0.00  0.00    -0.121 NA
BRANCH  22  24
ATOM     24  C12 UNL     1      19.128  67.275  -3.110  0.00  0.00    +0.382 C 
ATOM     25  O2  UNL     1      18.383  67.026  -2.126  0.00  0.00    -0.244 OA
ATOM     26  O3  UNL     1      19.246  68.583  -3.567  0.00  0.00    -0.244 OA
ENDBRANCH  22  24
ENDBRANCH  21  22
ENDBRANCH  20  21
ENDBRANCH  19  20
ENDBRANCH  18  19
ENDBRANCH   3  18
TORSDOF 7
ENDMDL
MODEL 6
REMARK VINA RESULT:      -6.0      2.219      2.380
REMARK  Name = ./threeLigTest/pdb/l2c2.pdb
REMARK  7 active torsions:
REMARK  status: ('A' for Active; 'I' for Inactive)
REMARK    1  A    between atoms: N5_10  and  C6_11
REMARK    2  A    between atoms: C7_13  and  C8_14
REMARK    3  A    between atoms: C8_14  and  S1_15
REMARK    4  A    between atoms: S1_15  and  C9_16
REMARK    5  A    between atoms: C9_16  and  C10_17
REMARK    6  A    between atoms: C10_17  and  C11_18
REMARK    7  A    between atoms: C11_18  and  C12_20
REMARK                            x       y       z     vdW  Elec       q    Type
REMARK                         _______ _______ _______ _____ _____    ______ ____
ROOT
ATOM      1  C6  UNL     1      18.869  58.500  -7.947  0.00  0.00    +0.241 C 
ATOM      2  O1  UNL     1      19.200  59.630  -7.162  0.00  0.00    -0.332 OA
ATOM      3  C7  UNL     1      19.187  59.230  -5.810  0.00  0.00    +0.161 C 
ATOM      4  C13 UNL     1      19.343  57.719  -5.761  0.00  0.00    +0.214 C 
ATOM      5  O4  UNL     1      18.729  57.183  -4.617  0.00  0.00    -0.218 OA
ATOM      6  C14 UNL     1      18.665  57.286  -7.035  0.00  0.00    +0.234 C 
ATOM      7  O5  UNL     1      17.293  57.069  -6.815  0.00  0.00    -0.216 OA
ENDROOT
BRANCH   1  17
ATOM      8  N1  UNL     1      22.989  58.411 -12.427  0.00  0.00    -0.105 NA
ATOM      9  C1  UNL     1      22.051  59.086 -11.587  0.00  0.00    +0.192 A 
ATOM     10  N2  UNL     1      21.785  60.419 -11.759  0.00  0.00    -0.204 NA
ATOM     11  C2  UNL     1      20.873  61.070 -10.966  0.00  0.00    +0.202 A 
ATOM     12  N3  UNL     1      20.208  60.400  -9.976  0.00  0.00    -0.205 NA
ATOM     13  C3  UNL     1      20.484  59.083  -9.799  0.00  0.00    +0.169 A 
ATOM     14  C4  UNL     1      21.371  58.418 -10.574  0.00  0.00    +0.152 A 
ATOM     15  N4  UNL     1      21.422  57.119 -10.227  0.00  0.00    -0.219 NA
ATOM     16  C5  UNL     1      20.524  57.044  -9.206  0.00  0.00    +0.182 A 
ATOM     17  N5  UNL     1      19.942  58.237  -8.912  0.00  0.00    -0.269 N 
ENDBRANCH   1  17
BRANCH   3  18
ATOM     18  C8  UNL     1      20.302  59.943  -5.034  0.00  0.00    +0.090 C 
BRANCH  18  19
ATOM     19  S1  UNL     1      20.130  61.763  -5.120  0.00  0.00    -0.138 S 
BRANCH  19  20
ATOM     20  C9  UNL     1      18.406  61.880  -4.504  0.00  0.00    +0.060 C 
BRANCH  20  21
ATOM     21  C10 UNL     1      18.226  63.098  -3.587  0.00  0.00    +0.042 C 
BRANCH  21  22
ATOM     22  C11 UNL     1      16.839  63.756  -3.720  0.00  0.00    +0.195 C 
ATOM     23  N6  UNL     1      16.443  64.386  -2.458  0.00  0.00    -0.121 NA
BRANCH  22  24
ATOM     24  C12 UNL     1      15.819  62.733  -4.144  0.00  0.00    +0.382 C 
ATOM     25  O2  UNL     1      15.801  62.312  -5.330  0.00  0.00    -0.244 OA
ATOM     26  O3  UNL     1      14.898  62.238  -3.227  0.00  0.00    -0.244 OA
ENDBRANCH  22  24
ENDBRANCH  21  22
ENDBRANCH  20  21
ENDBRANCH  19  20
ENDBRANCH  18  19
ENDBRANCH   3  18
TORSDOF 7
ENDMDL
