MODEL 1
REMARK VINA RESULT:      -8.5      0.000      0.000
REMARK  Name = ./threeLigTest/pdb/l0c4.pdb
REMARK  11 active torsions:
REMARK  status: ('A' for Active; 'I' for Inactive)
REMARK    1  A    between atoms: O1_2  and  C2_3
REMARK    2  A    between atoms: C5_6  and  C6_7
REMARK    3  A    between atoms: N2_9  and  C7_10
REMARK    4  A    between atoms: C19_23  and  O3_24
REMARK    5  A    between atoms: O3_24  and  C20_25
REMARK    6  A    between atoms: C20_25  and  C21_26
REMARK    7  A    between atoms: C21_26  and  C22_27
REMARK    8  A    between atoms: C22_27  and  C23_28
REMARK    9  A    between atoms: C23_28  and  O4_29
REMARK   10  A    between atoms: O4_29  and  C24_30
REMARK   11  A    between atoms: C27_33  and  C28_34
REMARK                            x       y       z     vdW  Elec       q    Type
REMARK                         _______ _______ _______ _____ _____    ______ ____
ROOT
ATOM      1  C2  UNL     1      20.296  59.109  -7.471  0.00  0.00    +0.172 A 
ATOM      2  C3  UNL     1      20.471  57.725  -7.637  0.00  0.00    +0.040 A 
ATOM      3  C4  UNL     1      20.150  56.839  -6.608  0.00  0.00    +0.005 A 
ATOM      4  C5  UNL     1      19.650  57.311  -5.380  0.00  0.00    +0.019 A 
ATOM      5  C18 UNL     1      19.501  58.703  -5.214  0.00  0.00    +0.041 A 
ATOM      6  C19 UNL     1      19.813  59.600  -6.253  0.00  0.00    +0.172 A 
ENDROOT
BRANCH   4   7
ATOM      7  C6  UNL     1      19.265  56.396  -4.262  0.00  0.00    +0.084 C 
ATOM      8  N1  UNL     1      19.273  56.822  -3.031  0.00  0.00    -0.180 NA
ATOM      9  N2  UNL     1      18.879  55.821  -2.146  0.00  0.00    -0.183 N 
ATOM     10  C14 UNL     1      18.598  54.662  -2.905  0.00  0.00    +0.249 C 
ATOM     11  O2  UNL     1      18.227  53.563  -2.411  0.00  0.00    -0.273 OA
ATOM     12  C15 UNL     1      18.819  54.931  -4.359  0.00  0.00    +0.107 C 
ATOM     13  C16 UNL     1      19.930  54.005  -4.882  0.00  0.00    +0.015 C 
ATOM     14  C17 UNL     1      17.488  54.758  -5.114  0.00  0.00    +0.015 C 
BRANCH   9  15
ATOM     15  C7  UNL     1      18.771  56.015  -0.697  0.00  0.00    +0.099 C 
ATOM     16  C8  UNL     1      17.328  55.697  -0.211  0.00  0.00    +0.022 C 
ATOM     17  C9  UNL     1      16.459  56.900   0.195  0.00  0.00    +0.002 C 
ATOM     18  C10 UNL     1      16.787  57.420   1.604  0.00  0.00    +0.000 C 
ATOM     19  C11 UNL     1      18.005  58.349   1.640  0.00  0.00    +0.000 C 
ATOM     20  C12 UNL     1      19.307  57.666   1.203  0.00  0.00    +0.002 C 
ATOM     21  C13 UNL     1      19.343  57.395  -0.310  0.00  0.00    +0.022 C 
ENDBRANCH   9  15
ENDBRANCH   4   7
BRANCH   1  23
ATOM     22  C1  UNL     1      20.575  59.716  -9.882  0.00  0.00    +0.253 C 
ATOM     23  O1  UNL     1      20.585  60.027  -8.492  0.00  0.00    -0.468 OA
ENDBRANCH   1  23
BRANCH   6  24
ATOM     24  O3  UNL     1      19.642  60.986  -6.121  0.00  0.00    -0.472 OA
BRANCH  24  25
ATOM     25  C20 UNL     1      20.033  61.750  -4.982  0.00  0.00    +0.206 C 
BRANCH  25  26
ATOM     26  C21 UNL     1      21.139  61.021  -4.212  0.00  0.00    +0.051 C 
BRANCH  26  27
ATOM     27  C22 UNL     1      21.034  61.167  -2.681  0.00  0.00    +0.051 C 
BRANCH  27  28
ATOM     28  C23 UNL     1      21.507  62.529  -2.161  0.00  0.00    +0.206 C 
BRANCH  28  29
ATOM     29  O4  UNL     1      20.399  63.419  -2.050  0.00  0.00    -0.475 OA
BRANCH  29  30
ATOM     30  C24 UNL     1      20.306  64.660  -2.695  0.00  0.00    +0.139 A 
ATOM     31  C25 UNL     1      19.120  65.419  -2.700  0.00  0.00    +0.037 A 
ATOM     32  C26 UNL     1      19.073  66.649  -3.362  0.00  0.00    +0.006 A 
ATOM     33  C27 UNL     1      20.203  67.139  -4.037  0.00  0.00    +0.040 A 
ATOM     34  C29 UNL     1      21.387  66.381  -4.028  0.00  0.00    +0.006 A 
ATOM     35  C30 UNL     1      21.435  65.154  -3.359  0.00  0.00    +0.037 A 
BRANCH  33  36
ATOM     36  C28 UNL     1      20.146  68.436  -4.745  0.00  0.00    +0.208 A 
ATOM     37  N3  UNL     1      19.338  69.459  -4.397  0.00  0.00    -0.106 NA
ATOM     38  N4  UNL     1      19.595  70.413  -5.276  0.00  0.00    -0.021 NA
ATOM     39  N5  UNL     1      20.516  69.983  -6.121  0.00  0.00    -0.021 NA
ATOM     40  N6  UNL     1      20.890  68.750  -5.823  0.00  0.00    -0.106 NA
ENDBRANCH  33  36
ENDBRANCH  29  30
ENDBRANCH  28  29
ENDBRANCH  27  28
ENDBRANCH  26  27
ENDBRANCH  25  26
ENDBRANCH  24  25
ENDBRANCH   6  24
TORSDOF 11
ENDMDL
MODEL 2
REMARK VINA RESULT:      -7.3      2.241      3.142
REMARK  Name = ./threeLigTest/pdb/l0c4.pdb
REMARK  11 active torsions:
REMARK  status: ('A' for Active; 'I' for Inactive)
REMARK    1  A    between atoms: O1_2  and  C2_3
REMARK    2  A    between atoms: C5_6  and  C6_7
REMARK    3  A    between atoms: N2_9  and  C7_10
REMARK    4  A    between atoms: C19_23  and  O3_24
REMARK    5  A    between atoms: O3_24  and  C20_25
REMARK    6  A    between atoms: C20_25  and  C21_26
REMARK    7  A    between atoms: C21_26  and  C22_27
REMARK    8  A    between atoms: C22_27  and  C23_28
REMARK    9  A    between atoms: C23_28  and  O4_29
REMARK   10  A    between atoms: O4_29  and  C24_30
REMARK   11  A    between atoms: C27_33  and  C28_34
REMARK                            x       y       z     vdW  Elec       q    Type
REMARK                         _______ _______ _______ _____ _____    ______ ____
ROOT
ATOM      1  C2  UNL     1      20.570  59.432  -9.568  0.00  0.00    +0.172 A 
ATOM      2  C3  UNL     1      20.408  58.228 -10.273  0.00  0.00    +0.040 A 
ATOM      3  C4  UNL     1      19.736  57.150  -9.694  0.00  0.00    +0.005 A 
ATOM      4  C5  UNL     1      19.210  57.243  -8.393  0.00  0.00    +0.019 A 
ATOM      5  C18 UNL     1      19.399  58.448  -7.684  0.00  0.00    +0.041 A 
ATOM      6  C19 UNL     1      20.067  59.541  -8.267  0.00  0.00    +0.172 A 
ENDROOT
BRANCH   4   7
ATOM      7  C6  UNL     1      18.457  56.125  -7.746  0.00  0.00    +0.084 C 
ATOM      8  N1  UNL     1      18.830  55.665  -6.586  0.00  0.00    -0.180 NA
ATOM      9  N2  UNL     1      17.997  54.634  -6.159  0.00  0.00    -0.183 N 
ATOM     10  C14 UNL     1      17.010  54.438  -7.152  0.00  0.00    +0.249 C 
ATOM     11  O2  UNL     1      16.101  53.567  -7.087  0.00  0.00    -0.273 OA
ATOM     12  C15 UNL     1      17.216  55.398  -8.280  0.00  0.00    +0.107 C 
ATOM     13  C16 UNL     1      17.497  54.610  -9.570  0.00  0.00    +0.015 C 
ATOM     14  C17 UNL     1      15.985  56.316  -8.393  0.00  0.00    +0.015 C 
BRANCH   9  15
ATOM     15  C7  UNL     1      18.158  53.938  -4.878  0.00  0.00    +0.099 C 
ATOM     16  C8  UNL     1      16.771  53.563  -4.284  0.00  0.00    +0.022 C 
ATOM     17  C9  UNL     1      16.302  54.378  -3.066  0.00  0.00    +0.002 C 
ATOM     18  C10 UNL     1      16.957  53.914  -1.755  0.00  0.00    +0.000 C 
ATOM     19  C11 UNL     1      18.360  54.490  -1.540  0.00  0.00    +0.000 C 
ATOM     20  C12 UNL     1      19.369  54.057  -2.611  0.00  0.00    +0.002 C 
ATOM     21  C13 UNL     1      19.110  54.739  -3.964  0.00  0.00    +0.022 C 
ENDBRANCH   9  15
ENDBRANCH   4   7
BRANCH   1  23
ATOM     22  C1  UNL     1      21.202  60.875 -11.512  0.00  0.00    +0.253 C 
ATOM     23  O1  UNL     1      21.219  60.544 -10.127  0.00  0.00    -0.468 OA
ENDBRANCH   1  23
BRANCH   6  24
ATOM     24  O3  UNL     1      20.237  60.759  -7.593  0.00  0.00    -0.472 OA
BRANCH  24  25
ATOM     25  C20 UNL     1      19.894  60.989  -6.228  0.00  0.00    +0.206 C 
BRANCH  25  26
ATOM     26  C21 UNL     1      21.069  60.614  -5.319  0.00  0.00    +0.051 C 
BRANCH  26  27
ATOM     27  C22 UNL     1      20.705  60.555  -3.822  0.00  0.00    +0.051 C 
BRANCH  27  28
ATOM     28  C23 UNL     1      21.467  61.571  -2.964  0.00  0.00    +0.206 C 
BRANCH  28  29
ATOM     29  O4  UNL     1      20.551  62.470  -2.345  0.00  0.00    -0.475 OA
BRANCH  29  30
ATOM     30  C24 UNL     1      20.327  63.791  -2.758  0.00  0.00    +0.139 A 
ATOM     31  C25 UNL     1      19.036  64.346  -2.839  0.00  0.00    +0.037 A 
ATOM     32  C26 UNL     1      18.863  65.666  -3.262  0.00  0.00    +0.006 A 
ATOM     33  C27 UNL     1      19.971  66.453  -3.619  0.00  0.00    +0.040 A 
ATOM     34  C29 UNL     1      21.260  65.897  -3.534  0.00  0.00    +0.006 A 
ATOM     35  C30 UNL     1      21.432  64.578  -3.103  0.00  0.00    +0.037 A 
BRANCH  33  36
ATOM     36  C28 UNL     1      19.781  67.846  -4.076  0.00  0.00    +0.208 A 
ATOM     37  N3  UNL     1      20.552  68.457  -5.001  0.00  0.00    -0.106 NA
ATOM     38  N4  UNL     1      20.050  69.675  -5.114  0.00  0.00    -0.021 NA
ATOM     39  N5  UNL     1      19.023  69.796  -4.291  0.00  0.00    -0.021 NA
ATOM     40  N6  UNL     1      18.819  68.673  -3.624  0.00  0.00    -0.106 NA
ENDBRANCH  33  36
ENDBRANCH  29  30
ENDBRANCH  28  29
ENDBRANCH  27  28
ENDBRANCH  26  27
ENDBRANCH  25  26
ENDBRANCH  24  25
ENDBRANCH   6  24
TORSDOF 11
ENDMDL
