MODEL 1
REMARK VINA RESULT:      -5.3      0.000      0.000
REMARK  Name = ./threeLigTest/pdb/l1c2.pdb
REMARK  11 active torsions:
REMARK  status: ('A' for Active; 'I' for Inactive)
REMARK    1  A    between atoms: O1_2  and  C2_3
REMARK    2  A    between atoms: C5_6  and  C6_7
REMARK    3  A    between atoms: N2_9  and  C7_10
REMARK    4  A    between atoms: C22_26  and  O3_27
REMARK    5  A    between atoms: O3_27  and  C23_28
REMARK    6  A    between atoms: C23_28  and  C24_29
REMARK    7  A    between atoms: C24_29  and  C25_30
REMARK    8  A    between atoms: C25_30  and  C26_31
REMARK    9  A    between atoms: C26_31  and  O4_32
REMARK   10  A    between atoms: O4_32  and  C27_33
REMARK   11  A    between atoms: C30_36  and  C31_37
REMARK                            x       y       z     vdW  Elec       q    Type
REMARK                         _______ _______ _______ _____ _____    ______ ____
ROOT
ATOM      1  C2  UNL     1      19.708  54.788  -7.144  0.00  0.00    +0.172 A 
ATOM      2  C3  UNL     1      20.682  55.800  -7.092  0.00  0.00    +0.040 A 
ATOM      3  C4  UNL     1      20.822  56.594  -5.952  0.00  0.00    +0.005 A 
ATOM      4  C5  UNL     1      20.014  56.375  -4.820  0.00  0.00    +0.018 A 
ATOM      5  C21 UNL     1      19.071  55.329  -4.864  0.00  0.00    +0.041 A 
ATOM      6  C22 UNL     1      18.885  54.566  -6.032  0.00  0.00    +0.172 A 
ENDROOT
BRANCH   4   7
ATOM      7  C6  UNL     1      20.093  57.249  -3.610  0.00  0.00    +0.077 C 
ATOM      8  N1  UNL     1      19.674  56.771  -2.469  0.00  0.00    -0.180 NA
ATOM      9  N2  UNL     1      19.651  57.516  -1.271  0.00  0.00    -0.183 N 
ATOM     10  C14 UNL     1      20.366  58.765  -1.212  0.00  0.00    +0.244 C 
ATOM     11  O2  UNL     1      20.340  59.481  -0.174  0.00  0.00    -0.273 OA
ATOM     12  C15 UNL     1      21.204  59.154  -2.400  0.00  0.00    +0.089 C 
ATOM     13  C16 UNL     1      21.564  60.654  -2.453  0.00  0.00    +0.035 C 
ATOM     14  C17 UNL     1      20.440  61.520  -2.953  0.00  0.00    -0.030 C 
ATOM     15  C18 UNL     1      19.449  61.046  -3.724  0.00  0.00    -0.030 C 
ATOM     16  C19 UNL     1      19.225  59.573  -3.946  0.00  0.00    +0.032 C 
ATOM     17  C20 UNL     1      20.487  58.717  -3.694  0.00  0.00    +0.055 C 
BRANCH   9  18
ATOM     18  C7  UNL     1      18.902  56.965  -0.130  0.00  0.00    +0.099 C 
ATOM     19  C8  UNL     1      17.818  57.964   0.333  0.00  0.00    +0.022 C 
ATOM     20  C9  UNL     1      17.136  57.550   1.647  0.00  0.00    +0.002 C 
ATOM     21  C10 UNL     1      15.914  56.653   1.417  0.00  0.00    +0.000 C 
ATOM     22  C11 UNL     1      16.280  55.249   0.927  0.00  0.00    +0.000 C 
ATOM     23  C12 UNL     1      16.930  55.244  -0.466  0.00  0.00    +0.002 C 
ATOM     24  C13 UNL     1      18.444  55.508  -0.425  0.00  0.00    +0.022 C 
ENDBRANCH   9  18
ENDBRANCH   4   7
BRANCH   1  26
ATOM     25  C1  UNL     1      20.370  53.999  -9.426  0.00  0.00    +0.253 C 
ATOM     26  O1  UNL     1      19.520  53.990  -8.284  0.00  0.00    -0.468 OA
ENDBRANCH   1  26
BRANCH   6  27
ATOM     27  O3  UNL     1      17.886  53.584  -6.134  0.00  0.00    -0.472 OA
BRANCH  27  28
ATOM     28  C23 UNL     1      16.790  53.590  -7.052  0.00  0.00    +0.206 C 
BRANCH  28  29
ATOM     29  C24 UNL     1      15.444  53.563  -6.310  0.00  0.00    +0.051 C 
BRANCH  29  30
ATOM     30  C25 UNL     1      14.536  54.750  -6.692  0.00  0.00    +0.051 C 
BRANCH  30  31
ATOM     31  C26 UNL     1      15.191  55.708  -7.691  0.00  0.00    +0.206 C 
BRANCH  31  32
ATOM     32  O4  UNL     1      16.195  56.501  -7.059  0.00  0.00    -0.475 OA
BRANCH  32  33
ATOM     33  C27 UNL     1      17.157  57.247  -7.753  0.00  0.00    +0.139 A 
ATOM     34  C28 UNL     1      17.783  58.370  -7.190  0.00  0.00    +0.037 A 
ATOM     35  C29 UNL     1      18.770  59.060  -7.900  0.00  0.00    +0.006 A 
ATOM     36  C30 UNL     1      19.154  58.644  -9.186  0.00  0.00    +0.040 A 
ATOM     37  C32 UNL     1      18.505  57.531  -9.754  0.00  0.00    +0.006 A 
ATOM     38  C33 UNL     1      17.515  56.844  -9.043  0.00  0.00    +0.037 A 
BRANCH  36  39
ATOM     39  C31 UNL     1      20.243  59.345  -9.920  0.00  0.00    +0.208 A 
ATOM     40  N3  UNL     1      20.157  60.574 -10.466  0.00  0.00    -0.106 NA
ATOM     41  N4  UNL     1      21.326  60.814 -11.037  0.00  0.00    -0.021 NA
ATOM     42  N5  UNL     1      22.117  59.766 -10.861  0.00  0.00    -0.021 NA
ATOM     43  N6  UNL     1      21.469  58.843 -10.172  0.00  0.00    -0.106 NA
ENDBRANCH  36  39
ENDBRANCH  32  33
ENDBRANCH  31  32
ENDBRANCH  30  31
ENDBRANCH  29  30
ENDBRANCH  28  29
ENDBRANCH  27  28
ENDBRANCH   6  27
TORSDOF 11
ENDMDL
MODEL 2
REMARK VINA RESULT:      -3.2      2.109      2.872
REMARK  Name = ./threeLigTest/pdb/l1c2.pdb
REMARK  11 active torsions:
REMARK  status: ('A' for Active; 'I' for Inactive)
REMARK    1  A    between atoms: O1_2  and  C2_3
REMARK    2  A    between atoms: C5_6  and  C6_7
REMARK    3  A    between atoms: N2_9  and  C7_10
REMARK    4  A    between atoms: C22_26  and  O3_27
REMARK    5  A    between atoms: O3_27  and  C23_28
REMARK    6  A    between atoms: C23_28  and  C24_29
REMARK    7  A    between atoms: C24_29  and  C25_30
REMARK    8  A    between atoms: C25_30  and  C26_31
REMARK    9  A    between atoms: C26_31  and  O4_32
REMARK   10  A    between atoms: O4_32  and  C27_33
REMARK   11  A    between atoms: C30_36  and  C31_37
REMARK                            x       y       z     vdW  Elec       q    Type
REMARK                         _______ _______ _______ _____ _____    ______ ____
ROOT
ATOM      1  C2  UNL     1      19.627  54.974  -6.672  0.00  0.00    +0.172 A 
ATOM      2  C3  UNL     1      20.801  55.687  -6.969  0.00  0.00    +0.040 A 
ATOM      3  C4  UNL     1      21.056  56.920  -6.363  0.00  0.00    +0.005 A 
ATOM      4  C5  UNL     1      20.159  57.455  -5.419  0.00  0.00    +0.018 A 
ATOM      5  C21 UNL     1      19.008  56.712  -5.095  0.00  0.00    +0.041 A 
ATOM      6  C22 UNL     1      18.716  55.499  -5.746  0.00  0.00    +0.172 A 
ENDROOT
BRANCH   4   7
ATOM      7  C6  UNL     1      20.369  58.801  -4.803  0.00  0.00    +0.077 C 
ATOM      8  N1  UNL     1      20.925  58.865  -3.623  0.00  0.00    -0.180 NA
ATOM      9  N2  UNL     1      21.129  60.071  -2.920  0.00  0.00    -0.183 N 
ATOM     10  C14 UNL     1      20.978  61.321  -3.619  0.00  0.00    +0.244 C 
ATOM     11  O2  UNL     1      21.114  62.422  -3.020  0.00  0.00    -0.273 OA
ATOM     12  C15 UNL     1      20.729  61.273  -5.103  0.00  0.00    +0.089 C 
ATOM     13  C16 UNL     1      20.148  62.579  -5.686  0.00  0.00    +0.035 C 
ATOM     14  C17 UNL     1      18.673  62.740  -5.435  0.00  0.00    -0.030 C 
ATOM     15  C18 UNL     1      17.861  61.699  -5.197  0.00  0.00    -0.030 C 
ATOM     16  C19 UNL     1      18.378  60.315  -4.905  0.00  0.00    +0.032 C 
ATOM     17  C20 UNL     1      19.812  60.074  -5.426  0.00  0.00    +0.055 C 
BRANCH   9  18
ATOM     18  C7  UNL     1      21.501  59.986  -1.498  0.00  0.00    +0.099 C 
ATOM     19  C8  UNL     1      21.454  61.386  -0.846  0.00  0.00    +0.022 C 
ATOM     20  C9  UNL     1      22.029  61.410   0.580  0.00  0.00    +0.002 C 
ATOM     21  C10 UNL     1      20.968  61.107   1.645  0.00  0.00    +0.000 C 
ATOM     22  C11 UNL     1      20.505  59.648   1.637  0.00  0.00    +0.000 C 
ATOM     23  C12 UNL     1      19.764  59.254   0.349  0.00  0.00    +0.002 C 
ATOM     24  C13 UNL     1      20.713  58.846  -0.791  0.00  0.00    +0.022 C 
ENDBRANCH   9  18
ENDBRANCH   4   7
BRANCH   1  26
ATOM     25  C1  UNL     1      19.144  53.563  -8.683  0.00  0.00    +0.253 C 
ATOM     26  O1  UNL     1      19.325  53.746  -7.283  0.00  0.00    -0.468 OA
ENDBRANCH   1  26
BRANCH   6  27
ATOM     27  O3  UNL     1      17.527  54.790  -5.512  0.00  0.00    -0.472 OA
BRANCH  27  28
ATOM     28  C23 UNL     1      17.090  53.624  -6.215  0.00  0.00    +0.206 C 
BRANCH  28  29
ATOM     29  C24 UNL     1      15.589  53.698  -6.534  0.00  0.00    +0.051 C 
BRANCH  29  30
ATOM     30  C25 UNL     1      15.083  55.151  -6.654  0.00  0.00    +0.051 C 
BRANCH  30  31
ATOM     31  C26 UNL     1      15.496  55.822  -7.967  0.00  0.00    +0.206 C 
BRANCH  31  32
ATOM     32  O4  UNL     1      16.273  56.994  -7.723  0.00  0.00    -0.475 OA
BRANCH  32  33
ATOM     33  C27 UNL     1      17.443  57.319  -8.422  0.00  0.00    +0.139 A 
ATOM     34  C28 UNL     1      18.077  58.563  -8.284  0.00  0.00    +0.037 A 
ATOM     35  C29 UNL     1      19.267  58.830  -8.967  0.00  0.00    +0.006 A 
ATOM     36  C30 UNL     1      19.850  57.861  -9.802  0.00  0.00    +0.040 A 
ATOM     37  C32 UNL     1      19.195  56.624  -9.955  0.00  0.00    +0.006 A 
ATOM     38  C33 UNL     1      18.003  56.361  -9.273  0.00  0.00    +0.037 A 
BRANCH  36  39
ATOM     39  C31 UNL     1      21.145  58.126 -10.486  0.00  0.00    +0.208 A 
ATOM     40  N3  UNL     1      22.000  59.125 -10.191  0.00  0.00    -0.106 NA
ATOM     41  N4  UNL     1      23.009  59.019 -11.039  0.00  0.00    -0.021 NA
ATOM     42  N5  UNL     1      22.792  57.990 -11.845  0.00  0.00    -0.021 NA
ATOM     43  N6  UNL     1      21.644  57.421 -11.523  0.00  0.00    -0.106 NA
ENDBRANCH  36  39
ENDBRANCH  32  33
ENDBRANCH  31  32
ENDBRANCH  30  31
ENDBRANCH  29  30
ENDBRANCH  28  29
ENDBRANCH  27  28
ENDBRANCH   6  27
TORSDOF 11
ENDMDL
