MODEL 1
REMARK VINA RESULT:      -9.3      0.000      0.000
REMARK  Name = ./threeLigTest/pdb/l2c0.pdb
REMARK  7 active torsions:
REMARK  status: ('A' for Active; 'I' for Inactive)
REMARK    1  A    between atoms: N5_10  and  C6_11
REMARK    2  A    between atoms: C7_13  and  C8_14
REMARK    3  A    between atoms: C8_14  and  S1_15
REMARK    4  A    between atoms: S1_15  and  C9_16
REMARK    5  A    between atoms: C9_16  and  C10_17
REMARK    6  A    between atoms: C10_17  and  C11_18
REMARK    7  A    between atoms: C11_18  and  C12_20
REMARK                            x       y       z     vdW  Elec       q    Type
REMARK                         _______ _______ _______ _____ _____    ______ ____
ROOT
ATOM      1  C6  UNL     1      19.761  60.172  -7.711  0.00  0.00    +0.241 C 
ATOM      2  O1  UNL     1      20.649  60.932  -6.930  0.00  0.00    -0.332 OA
ATOM      3  C7  UNL     1      19.992  61.201  -5.709  0.00  0.00    +0.161 C 
ATOM      4  C13 UNL     1      18.802  60.235  -5.550  0.00  0.00    +0.214 C 
ATOM      5  O4  UNL     1      17.600  60.966  -5.551  0.00  0.00    -0.218 OA
ATOM      6  C14 UNL     1      18.907  59.343  -6.771  0.00  0.00    +0.234 C 
ATOM      7  O5  UNL     1      17.658  59.063  -7.349  0.00  0.00    -0.216 OA
ENDROOT
BRANCH   1  17
ATOM      8  N1  UNL     1      22.949  57.479 -12.155  0.00  0.00    -0.105 NA
ATOM      9  C1  UNL     1      22.231  58.592 -11.617  0.00  0.00    +0.192 A 
ATOM     10  N2  UNL     1      22.106  59.756 -12.326  0.00  0.00    -0.204 NA
ATOM     11  C2  UNL     1      21.426  60.833 -11.812  0.00  0.00    +0.202 A 
ATOM     12  N3  UNL     1      20.850  60.764 -10.574  0.00  0.00    -0.205 NA
ATOM     13  C3  UNL     1      20.969  59.607  -9.875  0.00  0.00    +0.169 A 
ATOM     14  C4  UNL     1      21.640  58.535 -10.360  0.00  0.00    +0.152 A 
ATOM     15  N4  UNL     1      21.636  57.530  -9.464  0.00  0.00    -0.219 NA
ATOM     16  C5  UNL     1      20.930  58.054  -8.426  0.00  0.00    +0.182 A 
ATOM     17  N5  UNL     1      20.500  59.323  -8.649  0.00  0.00    -0.269 N 
ENDBRANCH   1  17
BRANCH   3  18
ATOM     18  C8  UNL     1      21.002  61.076  -4.561  0.00  0.00    +0.090 C 
BRANCH  18  19
ATOM     19  S1  UNL     1      20.527  62.143  -3.154  0.00  0.00    -0.138 S 
BRANCH  19  20
ATOM     20  C9  UNL     1      19.641  63.398  -4.153  0.00  0.00    +0.060 C 
BRANCH  20  21
ATOM     21  C10 UNL     1      18.917  64.413  -3.257  0.00  0.00    +0.042 C 
BRANCH  21  22
ATOM     22  C11 UNL     1      19.254  65.882  -3.587  0.00  0.00    +0.195 C 
ATOM     23  N6  UNL     1      20.626  66.174  -3.168  0.00  0.00    -0.121 NA
BRANCH  22  24
ATOM     24  C12 UNL     1      18.295  66.842  -2.928  0.00  0.00    +0.382 C 
ATOM     25  O2  UNL     1      17.069  66.803  -3.212  0.00  0.00    -0.244 OA
ATOM     26  O3  UNL     1      18.763  67.812  -2.049  0.00  0.00    -0.244 OA
ENDBRANCH  22  24
ENDBRANCH  21  22
ENDBRANCH  20  21
ENDBRANCH  19  20
ENDBRANCH  18  19
ENDBRANCH   3  18
TORSDOF 7
ENDMDL
MODEL 2
REMARK VINA RESULT:      -8.1      3.424      8.240
REMARK  Name = ./threeLigTest/pdb/l2c0.pdb
REMARK  7 active torsions:
REMARK  status: ('A' for Active; 'I' for Inactive)
REMARK    1  A    between atoms: N5_10  and  C6_11
REMARK    2  A    between atoms: C7_13  and  C8_14
REMARK    3  A    between atoms: C8_14  and  S1_15
REMARK    4  A    between atoms: S1_15  and  C9_16
REMARK    5  A    between atoms: C9_16  and  C10_17
REMARK    6  A    between atoms: C10_17  and  C11_18
REMARK    7  A    between atoms: C11_18  and  C12_20
REMARK                            x       y       z     vdW  Elec       q    Type
REMARK                         _______ _______ _______ _____ _____    ______ ____
ROOT
ATOM      1  C6  UNL     1      20.468  60.151  -5.006  0.00  0.00    +0.241 C 
ATOM      2  O1  UNL     1      20.530  60.158  -6.410  0.00  0.00    -0.332 OA
ATOM      3  C7  UNL     1      20.082  58.891  -6.845  0.00  0.00    +0.161 C 
ATOM      4  C13 UNL     1      19.327  58.198  -5.694  0.00  0.00    +0.214 C 
ATOM      5  O4  UNL     1      20.024  57.041  -5.304  0.00  0.00    -0.218 OA
ATOM      6  C14 UNL     1      19.328  59.240  -4.594  0.00  0.00    +0.234 C 
ATOM      7  O5  UNL     1      19.563  58.690  -3.324  0.00  0.00    -0.216 OA
ENDROOT
BRANCH   1  17
ATOM      8  N1  UNL     1      20.442  65.600  -2.271  0.00  0.00    -0.105 NA
ATOM      9  C1  UNL     1      20.882  64.244  -2.372  0.00  0.00    +0.192 A 
ATOM     10  N2  UNL     1      21.788  63.731  -1.482  0.00  0.00    -0.204 NA
ATOM     11  C2  UNL     1      22.223  62.432  -1.579  0.00  0.00    +0.202 A 
ATOM     12  N3  UNL     1      21.755  61.615  -2.570  0.00  0.00    -0.205 NA
ATOM     13  C3  UNL     1      20.852  62.122  -3.446  0.00  0.00    +0.169 A 
ATOM     14  C4  UNL     1      20.414  63.401  -3.374  0.00  0.00    +0.152 A 
ATOM     15  N4  UNL     1      19.551  63.663  -4.373  0.00  0.00    -0.219 NA
ATOM     16  C5  UNL     1      19.494  62.479  -5.041  0.00  0.00    +0.182 A 
ATOM     17  N5  UNL     1      20.275  61.511  -4.494  0.00  0.00    -0.269 N 
ENDBRANCH   1  17
BRANCH   3  18
ATOM     18  C8  UNL     1      19.206  59.071  -8.091  0.00  0.00    +0.090 C 
BRANCH  18  19
ATOM     19  S1  UNL     1      19.571  57.783  -9.337  0.00  0.00    -0.138 S 
BRANCH  19  20
ATOM     20  C9  UNL     1      21.376  57.724  -9.032  0.00  0.00    +0.060 C 
BRANCH  20  21
ATOM     21  C10 UNL     1      22.109  58.828  -9.808  0.00  0.00    +0.042 C 
BRANCH  21  22
ATOM     22  C11 UNL     1      21.510  59.108 -11.202  0.00  0.00    +0.195 C 
ATOM     23  N6  UNL     1      22.379  58.534 -12.231  0.00  0.00    -0.121 NA
BRANCH  22  24
ATOM     24  C12 UNL     1      21.320  60.584 -11.449  0.00  0.00    +0.382 C 
ATOM     25  O2  UNL     1      20.767  61.303 -10.575  0.00  0.00    -0.244 OA
ATOM     26  O3  UNL     1      21.700  61.150 -12.660  0.00  0.00    -0.244 OA
ENDBRANCH  22  24
ENDBRANCH  21  22
ENDBRANCH  20  21
ENDBRANCH  19  20
ENDBRANCH  18  19
ENDBRANCH   3  18
TORSDOF 7
ENDMDL
MODEL 3
REMARK VINA RESULT:      -6.4      4.748      8.105
REMARK  Name = ./threeLigTest/pdb/l2c0.pdb
REMARK  7 active torsions:
REMARK  status: ('A' for Active; 'I' for Inactive)
REMARK    1  A    between atoms: N5_10  and  C6_11
REMARK    2  A    between atoms: C7_13  and  C8_14
REMARK    3  A    between atoms: C8_14  and  S1_15
REMARK    4  A    between atoms: S1_15  and  C9_16
REMARK    5  A    between atoms: C9_16  and  C10_17
REMARK    6  A    between atoms: C10_17  and  C11_18
REMARK    7  A    between atoms: C11_18  and  C12_20
REMARK                            x       y       z     vdW  Elec       q    Type
REMARK                         _______ _______ _______ _____ _____    ______ ____
ROOT
ATOM      1  C6  UNL     1      20.596  58.148  -7.650  0.00  0.00    +0.241 C 
ATOM      2  O1  UNL     1      20.053  56.939  -8.118  0.00  0.00    -0.332 OA
ATOM      3  C7  UNL     1      19.391  56.338  -7.024  0.00  0.00    +0.161 C 
ATOM      4  C13 UNL     1      19.162  57.396  -5.927  0.00  0.00    +0.214 C 
ATOM      5  O4  UNL     1      19.893  57.047  -4.777  0.00  0.00    -0.218 OA
ATOM      6  C14 UNL     1      19.692  58.671  -6.551  0.00  0.00    +0.234 C 
ATOM      7  O5  UNL     1      20.416  59.461  -5.644  0.00  0.00    -0.216 OA
ENDROOT
BRANCH   1  17
ATOM      8  N1  UNL     1      21.459  61.390 -12.741  0.00  0.00    -0.105 NA
ATOM      9  C1  UNL     1      21.624  60.204 -11.960  0.00  0.00    +0.192 A 
ATOM     10  N2  UNL     1      22.282  59.116 -12.467  0.00  0.00    -0.204 NA
ATOM     11  C2  UNL     1      22.436  57.970 -11.726  0.00  0.00    +0.202 A 
ATOM     12  N3  UNL     1      21.938  57.892 -10.455  0.00  0.00    -0.205 NA
ATOM     13  C3  UNL     1      21.293  58.974  -9.952  0.00  0.00    +0.169 A 
ATOM     14  C4  UNL     1      21.123  60.111 -10.666  0.00  0.00    +0.152 A 
ATOM     15  N4  UNL     1      20.429  61.018  -9.954  0.00  0.00    -0.219 NA
ATOM     16  C5  UNL     1      20.195  60.367  -8.783  0.00  0.00    +0.182 A 
ATOM     17  N5  UNL     1      20.718  59.114  -8.746  0.00  0.00    -0.269 N 
ENDBRANCH   1  17
BRANCH   3  18
ATOM     18  C8  UNL     1      18.079  55.715  -7.515  0.00  0.00    +0.090 C 
BRANCH  18  19
ATOM     19  S1  UNL     1      18.090  55.518  -9.333  0.00  0.00    -0.138 S 
BRANCH  19  20
ATOM     20  C9  UNL     1      18.801  53.830  -9.342  0.00  0.00    +0.060 C 
BRANCH  20  21
ATOM     21  C10 UNL     1      19.592  53.565 -10.631  0.00  0.00    +0.042 C 
BRANCH  21  22
ATOM     22  C11 UNL     1      20.622  54.664 -10.963  0.00  0.00    +0.195 C 
ATOM     23  N6  UNL     1      20.717  54.821 -12.416  0.00  0.00    -0.121 NA
BRANCH  22  24
ATOM     24  C12 UNL     1      21.981  54.358 -10.385  0.00  0.00    +0.382 C 
ATOM     25  O2  UNL     1      22.259  54.709  -9.208  0.00  0.00    -0.244 OA
ATOM     26  O3  UNL     1      22.953  53.738 -11.162  0.00  0.00    -0.244 OA
ENDBRANCH  22  24
ENDBRANCH  21  22
ENDBRANCH  20  21
ENDBRANCH  19  20
ENDBRANCH  18  19
ENDBRANCH   3  18
TORSDOF 7
ENDMDL
