MODEL 1
REMARK VINA RESULT:      -6.6      0.000      0.000
REMARK  Name = ./threeLigTest/pdb/l0c1.pdb
REMARK  11 active torsions:
REMARK  status: ('A' for Active; 'I' for Inactive)
REMARK    1  A    between atoms: O1_2  and  C2_3
REMARK    2  A    between atoms: C5_6  and  C6_7
REMARK    3  A    between atoms: N2_9  and  C7_10
REMARK    4  A    between atoms: C19_23  and  O3_24
REMARK    5  A    between atoms: O3_24  and  C20_25
REMARK    6  A    between atoms: C20_25  and  C21_26
REMARK    7  A    between atoms: C21_26  and  C22_27
REMARK    8  A    between atoms: C22_27  and  C23_28
REMARK    9  A    between atoms: C23_28  and  O4_29
REMARK   10  A    between atoms: O4_29  and  C24_30
REMARK   11  A    between atoms: C27_33  and  C28_34
REMARK                            x       y       z     vdW  Elec       q    Type
REMARK                         _______ _______ _______ _____ _____    ______ ____
ROOT
ATOM      1  C2  UNL     1      18.889  58.687  -5.870  0.00  0.00    +0.172 A 
ATOM      2  C3  UNL     1      19.079  60.030  -6.235  0.00  0.00    +0.040 A 
ATOM      3  C4  UNL     1      19.618  60.941  -5.324  0.00  0.00    +0.005 A 
ATOM      4  C5  UNL     1      19.984  60.539  -4.026  0.00  0.00    +0.019 A 
ATOM      5  C18 UNL     1      19.793  59.190  -3.670  0.00  0.00    +0.041 A 
ATOM      6  C19 UNL     1      19.244  58.266  -4.583  0.00  0.00    +0.172 A 
ENDROOT
BRANCH   4   7
ATOM      7  C6  UNL     1      20.554  61.545  -3.077  0.00  0.00    +0.084 C 
ATOM      8  N1  UNL     1      20.482  62.815  -3.348  0.00  0.00    -0.180 NA
ATOM      9  N2  UNL     1      21.085  63.577  -2.349  0.00  0.00    -0.183 N 
ATOM     10  C14 UNL     1      21.607  62.691  -1.384  0.00  0.00    +0.249 C 
ATOM     11  O2  UNL     1      22.255  63.057  -0.366  0.00  0.00    -0.273 OA
ATOM     12  C15 UNL     1      21.279  61.278  -1.751  0.00  0.00    +0.107 C 
ATOM     13  C16 UNL     1      20.356  60.683  -0.672  0.00  0.00    +0.015 C 
ATOM     14  C17 UNL     1      22.582  60.479  -1.932  0.00  0.00    +0.015 C 
BRANCH   9  15
ATOM     15  C7  UNL     1      21.263  65.030  -2.405  0.00  0.00    +0.099 C 
ATOM     16  C8  UNL     1      20.128  65.733  -1.621  0.00  0.00    +0.022 C 
ATOM     17  C9  UNL     1      18.876  66.074  -2.449  0.00  0.00    +0.002 C 
ATOM     18  C10 UNL     1      18.990  67.444  -3.137  0.00  0.00    +0.000 C 
ATOM     19  C11 UNL     1      19.891  67.436  -4.378  0.00  0.00    +0.000 C 
ATOM     20  C12 UNL     1      21.332  66.987  -4.092  0.00  0.00    +0.002 C 
ATOM     21  C13 UNL     1      21.435  65.469  -3.875  0.00  0.00    +0.022 C 
ENDBRANCH   9  15
ENDBRANCH   4   7
BRANCH   1  23
ATOM     22  C1  UNL     1      17.926  58.031  -8.086  0.00  0.00    +0.253 C 
ATOM     23  O1  UNL     1      18.351  57.742  -6.758  0.00  0.00    -0.468 OA
ENDBRANCH   1  23
BRANCH   6  24
ATOM     24  O3  UNL     1      19.037  56.919  -4.242  0.00  0.00    -0.472 OA
BRANCH  24  25
ATOM     25  C20 UNL     1      20.072  56.012  -3.871  0.00  0.00    +0.206 C 
BRANCH  25  26
ATOM     26  C21 UNL     1      20.662  55.368  -5.126  0.00  0.00    +0.051 C 
BRANCH  26  27
ATOM     27  C22 UNL     1      19.644  54.496  -5.879  0.00  0.00    +0.051 C 
BRANCH  27  28
ATOM     28  C23 UNL     1      19.913  54.432  -7.384  0.00  0.00    +0.206 C 
BRANCH  28  29
ATOM     29  O4  UNL     1      21.103  55.158  -7.681  0.00  0.00    -0.475 OA
BRANCH  29  30
ATOM     30  C24 UNL     1      21.161  56.271  -8.533  0.00  0.00    +0.139 A 
ATOM     31  C25 UNL     1      21.540  57.504  -7.990  0.00  0.00    +0.037 A 
ATOM     32  C26 UNL     1      21.628  58.640  -8.800  0.00  0.00    +0.006 A 
ATOM     33  C27 UNL     1      21.336  58.560 -10.171  0.00  0.00    +0.040 A 
ATOM     34  C29 UNL     1      20.948  57.324 -10.716  0.00  0.00    +0.006 A 
ATOM     35  C30 UNL     1      20.859  56.189  -9.905  0.00  0.00    +0.037 A 
BRANCH  33  36
ATOM     36  C28 UNL     1      21.439  59.759 -11.030  0.00  0.00    +0.208 A 
ATOM     37  N3  UNL     1      22.034  59.780 -12.241  0.00  0.00    -0.106 NA
ATOM     38  N4  UNL     1      21.910  61.029 -12.660  0.00  0.00    -0.021 NA
ATOM     39  N5  UNL     1      21.269  61.732 -11.742  0.00  0.00    -0.021 NA
ATOM     40  N6  UNL     1      20.957  60.974 -10.705  0.00  0.00    -0.106 NA
ENDBRANCH  33  36
ENDBRANCH  29  30
ENDBRANCH  28  29
ENDBRANCH  27  28
ENDBRANCH  26  27
ENDBRANCH  25  26
ENDBRANCH  24  25
ENDBRANCH   6  24
TORSDOF 11
ENDMDL
MODEL 2
REMARK VINA RESULT:      -4.2      3.605      7.945
REMARK  Name = ./threeLigTest/pdb/l0c1.pdb
REMARK  11 active torsions:
REMARK  status: ('A' for Active; 'I' for Inactive)
REMARK    1  A    between atoms: O1_2  and  C2_3
REMARK    2  A    between atoms: C5_6  and  C6_7
REMARK    3  A    between atoms: N2_9  and  C7_10
REMARK    4  A    between atoms: C19_23  and  O3_24
REMARK    5  A    between atoms: O3_24  and  C20_25
REMARK    6  A    between atoms: C20_25  and  C21_26
REMARK    7  A    between atoms: C21_26  and  C22_27
REMARK    8  A    between atoms: C22_27  and  C23_28
REMARK    9  A    between atoms: C23_28  and  O4_29
REMARK   10  A    between atoms: O4_29  and  C24_30
REMARK   11  A    between atoms: C27_33  and  C28_34
REMARK                            x       y       z     vdW  Elec       q    Type
REMARK                         _______ _______ _______ _____ _____    ______ ____
ROOT
ATOM      1  C2  UNL     1      18.416  61.119  -5.194  0.00  0.00    +0.172 A 
ATOM      2  C3  UNL     1      17.619  60.603  -6.230  0.00  0.00    +0.040 A 
ATOM      3  C4  UNL     1      17.700  59.254  -6.579  0.00  0.00    +0.005 A 
ATOM      4  C5  UNL     1      18.574  58.381  -5.904  0.00  0.00    +0.019 A 
ATOM      5  C18 UNL     1      19.367  58.906  -4.866  0.00  0.00    +0.041 A 
ATOM      6  C19 UNL     1      19.295  60.269  -4.512  0.00  0.00    +0.172 A 
ENDROOT
BRANCH   4   7
ATOM      7  C6  UNL     1      18.636  56.943  -6.310  0.00  0.00    +0.084 C 
ATOM      8  N1  UNL     1      17.662  56.410  -6.988  0.00  0.00    -0.180 NA
ATOM      9  N2  UNL     1      17.907  55.063  -7.248  0.00  0.00    -0.183 N 
ATOM     10  C14 UNL     1      19.136  54.723  -6.646  0.00  0.00    +0.249 C 
ATOM     11  O2  UNL     1      19.630  53.563  -6.656  0.00  0.00    -0.273 OA
ATOM     12  C15 UNL     1      19.747  55.929  -6.004  0.00  0.00    +0.107 C 
ATOM     13  C16 UNL     1      21.072  56.256  -6.717  0.00  0.00    +0.015 C 
ATOM     14  C17 UNL     1      19.924  55.673  -4.496  0.00  0.00    +0.015 C 
BRANCH   9  15
ATOM     15  C7  UNL     1      16.959  54.156  -7.899  0.00  0.00    +0.099 C 
ATOM     16  C8  UNL     1      16.977  54.381  -9.430  0.00  0.00    +0.022 C 
ATOM     17  C9  UNL     1      15.985  55.439  -9.948  0.00  0.00    +0.002 C 
ATOM     18  C10 UNL     1      14.601  54.840 -10.245  0.00  0.00    +0.000 C 
ATOM     19  C11 UNL     1      13.763  54.572  -8.988  0.00  0.00    +0.000 C 
ATOM     20  C12 UNL     1      14.433  53.612  -7.993  0.00  0.00    +0.002 C 
ATOM     21  C13 UNL     1      15.578  54.284  -7.219  0.00  0.00    +0.022 C 
ENDBRANCH   9  15
ENDBRANCH   4   7
BRANCH   1  23
ATOM     22  C1  UNL     1      17.517  62.989  -3.793  0.00  0.00    +0.253 C 
ATOM     23  O1  UNL     1      18.363  62.470  -4.814  0.00  0.00    -0.468 OA
ENDBRANCH   1  23
BRANCH   6  24
ATOM     24  O3  UNL     1      20.085  60.812  -3.486  0.00  0.00    -0.472 OA
BRANCH  24  25
ATOM     25  C20 UNL     1      21.108  61.785  -3.683  0.00  0.00    +0.206 C 
BRANCH  25  26
ATOM     26  C21 UNL     1      21.936  61.414  -4.914  0.00  0.00    +0.051 C 
BRANCH  26  27
ATOM     27  C22 UNL     1      21.122  61.478  -6.217  0.00  0.00    +0.051 C 
BRANCH  27  28
ATOM     28  C23 UNL     1      21.713  60.613  -7.332  0.00  0.00    +0.206 C 
BRANCH  28  29
ATOM     29  O4  UNL     1      20.675  60.230  -8.230  0.00  0.00    -0.475 OA
BRANCH  29  30
ATOM     30  C24 UNL     1      20.715  59.090  -9.047  0.00  0.00    +0.139 A 
ATOM     31  C25 UNL     1      21.918  58.771  -9.686  0.00  0.00    +0.037 A 
ATOM     32  C26 UNL     1      22.013  57.636 -10.498  0.00  0.00    +0.006 A 
ATOM     33  C27 UNL     1      20.901  56.800 -10.685  0.00  0.00    +0.040 A 
ATOM     34  C29 UNL     1      19.689  57.123 -10.050  0.00  0.00    +0.006 A 
ATOM     35  C30 UNL     1      19.594  58.259  -9.239  0.00  0.00    +0.037 A 
BRANCH  33  36
ATOM     36  C28 UNL     1      21.004  55.595 -11.535  0.00  0.00    +0.208 A 
ATOM     37  N3  UNL     1      21.582  54.439 -11.151  0.00  0.00    -0.106 NA
ATOM     38  N4  UNL     1      21.464  53.635 -12.195  0.00  0.00    -0.021 NA
ATOM     39  N5  UNL     1      20.842  54.278 -13.168  0.00  0.00    -0.021 NA
ATOM     40  N6  UNL     1      20.536  55.509 -12.796  0.00  0.00    -0.106 NA
ENDBRANCH  33  36
ENDBRANCH  29  30
ENDBRANCH  28  29
ENDBRANCH  27  28
ENDBRANCH  26  27
ENDBRANCH  25  26
ENDBRANCH  24  25
ENDBRANCH   6  24
TORSDOF 11
ENDMDL
