MODEL 1
REMARK VINA RESULT:      -8.5      0.000      0.000
REMARK  Name = ./threeLigTest/pdb/l2c2.pdb
REMARK  7 active torsions:
REMARK  status: ('A' for Active; 'I' for Inactive)
REMARK    1  A    between atoms: N5_10  and  C6_11
REMARK    2  A    between atoms: C7_13  and  C8_14
REMARK    3  A    between atoms: C8_14  and  S1_15
REMARK    4  A    between atoms: S1_15  and  C9_16
REMARK    5  A    between atoms: C9_16  and  C10_17
REMARK    6  A    between atoms: C10_17  and  C11_18
REMARK    7  A    between atoms: C11_18  and  C12_20
REMARK                            x       y       z     vdW  Elec       q    Type
REMARK                         _______ _______ _______ _____ _____    ______ ____
ROOT
ATOM      1  C6  UNL     1      -2.863  44.392  -4.735  0.00  0.00    +0.241 C 
ATOM      2  O1  UNL     1      -3.822  43.889  -3.824  0.00  0.00    -0.332 OA
ATOM      3  C7  UNL     1      -3.412  42.597  -3.439  0.00  0.00    +0.161 C 
ATOM      4  C13 UNL     1      -1.922  42.471  -3.716  0.00  0.00    +0.214 C 
ATOM      5  O4  UNL     1      -1.567  41.138  -3.979  0.00  0.00    -0.218 OA
ATOM      6  C14 UNL     1      -1.744  43.362  -4.918  0.00  0.00    +0.234 C 
ATOM      7  O5  UNL     1      -1.942  42.635  -6.105  0.00  0.00    -0.216 OA
ENDROOT
BRANCH   1  17
ATOM      8  N1  UNL     1      -1.198  50.114  -3.495  0.00  0.00    -0.105 NA
ATOM      9  C1  UNL     1      -2.066  49.155  -4.102  0.00  0.00    +0.192 A 
ATOM     10  N2  UNL     1      -3.117  49.552  -4.885  0.00  0.00    -0.204 NA
ATOM     11  C2  UNL     1      -3.944  48.635  -5.484  0.00  0.00    +0.202 A 
ATOM     12  N3  UNL     1      -3.740  47.294  -5.307  0.00  0.00    -0.205 NA
ATOM     13  C3  UNL     1      -2.706  46.903  -4.520  0.00  0.00    +0.169 A 
ATOM     14  C4  UNL     1      -1.872  47.788  -3.928  0.00  0.00    +0.152 A 
ATOM     15  N4  UNL     1      -0.905  47.145  -3.248  0.00  0.00    -0.219 NA
ATOM     16  C5  UNL     1      -1.206  45.834  -3.463  0.00  0.00    +0.182 A 
ATOM     17  N5  UNL     1      -2.315  45.654  -4.230  0.00  0.00    -0.269 N 
ENDBRANCH   1  17
BRANCH   3  18
ATOM     18  C8  UNL     1      -3.738  42.353  -1.960  0.00  0.00    +0.090 C 
BRANCH  18  19
ATOM     19  S1  UNL     1      -3.069  40.752  -1.375  0.00  0.00    -0.138 S 
BRANCH  19  20
ATOM     20  C9  UNL     1      -4.668  39.938  -0.994  0.00  0.00    +0.060 C 
BRANCH  20  21
ATOM     21  C10 UNL     1      -5.804  40.966  -0.898  0.00  0.00    +0.042 C 
BRANCH  21  22
ATOM     22  C11 UNL     1      -6.724  40.739   0.317  0.00  0.00    +0.195 C 
ATOM     23  N6  UNL     1      -7.823  39.833  -0.028  0.00  0.00    -0.121 NA
BRANCH  22  24
ATOM     24  C12 UNL     1      -7.260  42.056   0.815  0.00  0.00    +0.382 C 
ATOM     25  O2  UNL     1      -6.660  43.127   0.538  0.00  0.00    -0.244 OA
ATOM     26  O3  UNL     1      -8.425  42.098   1.572  0.00  0.00    -0.244 OA
ENDBRANCH  22  24
ENDBRANCH  21  22
ENDBRANCH  20  21
ENDBRANCH  19  20
ENDBRANCH  18  19
ENDBRANCH   3  18
TORSDOF 7
ENDMDL
MODEL 2
REMARK VINA RESULT:      -7.7      2.641      3.843
REMARK  Name = ./threeLigTest/pdb/l2c2.pdb
REMARK  7 active torsions:
REMARK  status: ('A' for Active; 'I' for Inactive)
REMARK    1  A    between atoms: N5_10  and  C6_11
REMARK    2  A    between atoms: C7_13  and  C8_14
REMARK    3  A    between atoms: C8_14  and  S1_15
REMARK    4  A    between atoms: S1_15  and  C9_16
REMARK    5  A    between atoms: C9_16  and  C10_17
REMARK    6  A    between atoms: C10_17  and  C11_18
REMARK    7  A    between atoms: C11_18  and  C12_20
REMARK                            x       y       z     vdW  Elec       q    Type
REMARK                         _______ _______ _______ _____ _____    ______ ____
ROOT
ATOM      1  C6  UNL     1      -3.076  44.969  -4.655  0.00  0.00    +0.241 C 
ATOM      2  O1  UNL     1      -3.604  44.264  -3.548  0.00  0.00    -0.332 OA
ATOM      3  C7  UNL     1      -3.069  42.960  -3.575  0.00  0.00    +0.161 C 
ATOM      4  C13 UNL     1      -1.802  42.986  -4.415  0.00  0.00    +0.214 C 
ATOM      5  O4  UNL     1      -1.568  41.738  -5.016  0.00  0.00    -0.218 OA
ATOM      6  C14 UNL     1      -2.108  44.063  -5.423  0.00  0.00    +0.234 C 
ATOM      7  O5  UNL     1      -2.746  43.516  -6.550  0.00  0.00    -0.216 OA
ENDROOT
BRANCH   1  17
ATOM      8  N1  UNL     1      -0.890  50.524  -3.463  0.00  0.00    -0.105 NA
ATOM      9  C1  UNL     1      -1.894  49.644  -3.973  0.00  0.00    +0.192 A 
ATOM     10  N2  UNL     1      -3.018  50.137  -4.583  0.00  0.00    -0.204 NA
ATOM     11  C2  UNL     1      -3.978  49.297  -5.089  0.00  0.00    +0.202 A 
ATOM     12  N3  UNL     1      -3.837  47.940  -4.991  0.00  0.00    -0.205 NA
ATOM     13  C3  UNL     1      -2.730  47.455  -4.375  0.00  0.00    +0.169 A 
ATOM     14  C4  UNL     1      -1.766  48.262  -3.878  0.00  0.00    +0.152 A 
ATOM     15  N4  UNL     1      -0.756  47.535  -3.367  0.00  0.00    -0.219 NA
ATOM     16  C5  UNL     1      -1.167  46.255  -3.583  0.00  0.00    +0.182 A 
ATOM     17  N5  UNL     1      -2.382  46.174  -4.189  0.00  0.00    -0.269 N 
ENDBRANCH   1  17
BRANCH   3  18
ATOM     18  C8  UNL     1      -2.796  42.467  -2.148  0.00  0.00    +0.090 C 
BRANCH  18  19
ATOM     19  S1  UNL     1      -4.140  41.385  -1.537  0.00  0.00    -0.138 S 
BRANCH  19  20
ATOM     20  C9  UNL     1      -3.102  39.963  -1.024  0.00  0.00    +0.060 C 
BRANCH  20  21
ATOM     21  C10 UNL     1      -1.837  39.860  -1.888  0.00  0.00    +0.042 C 
BRANCH  21  22
ATOM     22  C11 UNL     1      -1.968  38.838  -3.034  0.00  0.00    +0.195 C 
ATOM     23  N6  UNL     1      -2.704  37.653  -2.588  0.00  0.00    -0.121 NA
BRANCH  22  24
ATOM     24  C12 UNL     1      -0.603  38.453  -3.543  0.00  0.00    +0.382 C 
ATOM     25  O2  UNL     1       0.354  39.267  -3.464  0.00  0.00    -0.244 OA
ATOM     26  O3  UNL     1      -0.389  37.193  -4.090  0.00  0.00    -0.244 OA
ENDBRANCH  22  24
ENDBRANCH  21  22
ENDBRANCH  20  21
ENDBRANCH  19  20
ENDBRANCH  18  19
ENDBRANCH   3  18
TORSDOF 7
ENDMDL
MODEL 3
REMARK VINA RESULT:      -6.9      2.409      2.775
REMARK  Name = ./threeLigTest/pdb/l2c2.pdb
REMARK  7 active torsions:
REMARK  status: ('A' for Active; 'I' for Inactive)
REMARK    1  A    between atoms: N5_10  and  C6_11
REMARK    2  A    between atoms: C7_13  and  C8_14
REMARK    3  A    between atoms: C8_14  and  S1_15
REMARK    4  A    between atoms: S1_15  and  C9_16
REMARK    5  A    between atoms: C9_16  and  C10_17
REMARK    6  A    between atoms: C10_17  and  C11_18
REMARK    7  A    between atoms: C11_18  and  C12_20
REMARK                            x       y       z     vdW  Elec       q    Type
REMARK                         _______ _______ _______ _____ _____    ______ ____
ROOT
ATOM      1  C6  UNL     1      -2.943  43.876  -4.415  0.00  0.00    +0.241 C 
ATOM      2  O1  UNL     1      -3.785  43.345  -3.409  0.00  0.00    -0.332 OA
ATOM      3  C7  UNL     1      -3.271  42.085  -3.040  0.00  0.00    +0.161 C 
ATOM      4  C13 UNL     1      -1.809  42.031  -3.452  0.00  0.00    +0.214 C 
ATOM      5  O4  UNL     1      -1.408  40.712  -3.722  0.00  0.00    -0.218 OA
ATOM      6  C14 UNL     1      -1.791  42.901  -4.683  0.00  0.00    +0.234 C 
ATOM      7  O5  UNL     1      -2.058  42.137  -5.832  0.00  0.00    -0.216 OA
ENDROOT
BRANCH   1  17
ATOM      8  N1  UNL     1      -1.266  49.671  -3.606  0.00  0.00    -0.105 NA
ATOM      9  C1  UNL     1      -2.086  48.665  -4.204  0.00  0.00    +0.192 A 
ATOM     10  N2  UNL     1      -3.031  48.992  -5.140  0.00  0.00    -0.204 NA
ATOM     11  C2  UNL     1      -3.812  48.029  -5.730  0.00  0.00    +0.202 A 
ATOM     12  N3  UNL     1      -3.667  46.712  -5.389  0.00  0.00    -0.205 NA
ATOM     13  C3  UNL     1      -2.740  46.392  -4.452  0.00  0.00    +0.169 A 
ATOM     14  C4  UNL     1      -1.953  47.322  -3.864  0.00  0.00    +0.152 A 
ATOM     15  N4  UNL     1      -1.087  46.742  -3.013  0.00  0.00    -0.219 NA
ATOM     16  C5  UNL     1      -1.399  45.421  -3.121  0.00  0.00    +0.182 A 
ATOM     17  N5  UNL     1      -2.419  45.177  -3.987  0.00  0.00    -0.269 N 
ENDBRANCH   1  17
BRANCH   3  18
ATOM     18  C8  UNL     1      -3.446  41.860  -1.532  0.00  0.00    +0.090 C 
BRANCH  18  19
ATOM     19  S1  UNL     1      -4.378  40.324  -1.182  0.00  0.00    -0.138 S 
BRANCH  19  20
ATOM     20  C9  UNL     1      -2.943  39.195  -1.010  0.00  0.00    +0.060 C 
BRANCH  20  21
ATOM     21  C10 UNL     1      -3.395  37.730  -0.941  0.00  0.00    +0.042 C 
BRANCH  21  22
ATOM     22  C11 UNL     1      -4.399  37.459   0.196  0.00  0.00    +0.195 C 
ATOM     23  N6  UNL     1      -3.721  36.872   1.355  0.00  0.00    -0.121 NA
BRANCH  22  24
ATOM     24  C12 UNL     1      -5.499  36.552  -0.289  0.00  0.00    +0.382 C 
ATOM     25  O2  UNL     1      -5.304  35.791  -1.273  0.00  0.00    -0.244 OA
ATOM     26  O3  UNL     1      -6.732  36.540   0.353  0.00  0.00    -0.244 OA
ENDBRANCH  22  24
ENDBRANCH  21  22
ENDBRANCH  20  21
ENDBRANCH  19  20
ENDBRANCH  18  19
ENDBRANCH   3  18
TORSDOF 7
ENDMDL
MODEL 4
REMARK VINA RESULT:      -5.8      3.424      5.111
REMARK  Name = ./threeLigTest/pdb/l2c2.pdb
REMARK  7 active torsions:
REMARK  status: ('A' for Active; 'I' for Inactive)
REMARK    1  A    between atoms: N5_10  and  C6_11
REMARK    2  A    between atoms: C7_13  and  C8_14
REMARK    3  A    between atoms: C8_14  and  S1_15
REMARK    4  A    between atoms: S1_15  and  C9_16
REMARK    5  A    between atoms: C9_16  and  C10_17
REMARK    6  A    between atoms: C10_17  and  C11_18
REMARK    7  A    between atoms: C11_18  and  C12_20
REMARK                            x       y       z     vdW  Elec       q    Type
REMARK                         _______ _______ _______ _____ _____    ______ ____
ROOT
ATOM      1  C6  UNL     1      -2.718  43.742  -3.811  0.00  0.00    +0.241 C 
ATOM      2  O1  UNL     1      -3.035  42.931  -2.696  0.00  0.00    -0.332 OA
ATOM      3  C7  UNL     1      -2.516  41.643  -2.941  0.00  0.00    +0.161 C 
ATOM      4  C13 UNL     1      -1.425  41.765  -3.992  0.00  0.00    +0.214 C 
ATOM      5  O4  UNL     1      -1.308  40.581  -4.739  0.00  0.00    -0.218 OA
ATOM      6  C14 UNL     1      -1.909  42.924  -4.824  0.00  0.00    +0.234 C 
ATOM      7  O5  UNL     1      -2.745  42.473  -5.861  0.00  0.00    -0.216 OA
ENDROOT
BRANCH   1  17
ATOM      8  N1  UNL     1       0.049  49.092  -2.934  0.00  0.00    -0.105 NA
ATOM      9  C1  UNL     1      -0.958  48.275  -3.532  0.00  0.00    +0.192 A 
ATOM     10  N2  UNL     1      -1.839  48.796  -4.443  0.00  0.00    -0.204 NA
ATOM     11  C2  UNL     1      -2.799  48.012  -5.033  0.00  0.00    +0.202 A 
ATOM     12  N3  UNL     1      -2.902  46.685  -4.720  0.00  0.00    -0.205 NA
ATOM     13  C3  UNL     1      -2.038  46.174  -3.807  0.00  0.00    +0.169 A 
ATOM     14  C4  UNL     1      -1.078  46.924  -3.220  0.00  0.00    +0.152 A 
ATOM     15  N4  UNL     1      -0.325  46.171  -2.397  0.00  0.00    -0.219 NA
ATOM     16  C5  UNL     1      -0.886  44.936  -2.521  0.00  0.00    +0.182 A 
ATOM     17  N5  UNL     1      -1.948  44.910  -3.370  0.00  0.00    -0.269 N 
ENDBRANCH   1  17
BRANCH   3  18
ATOM     18  C8  UNL     1      -1.987  41.026  -1.639  0.00  0.00    +0.090 C 
BRANCH  18  19
ATOM     19  S1  UNL     1      -2.264  39.218  -1.587  0.00  0.00    -0.138 S 
BRANCH  19  20
ATOM     20  C9  UNL     1      -0.541  38.692  -1.933  0.00  0.00    +0.060 C 
BRANCH  20  21
ATOM     21  C10 UNL     1      -0.448  37.167  -2.090  0.00  0.00    +0.042 C 
BRANCH  21  22
ATOM     22  C11 UNL     1      -0.236  36.721  -3.549  0.00  0.00    +0.195 C 
ATOM     23  N6  UNL     1      -0.740  35.360  -3.752  0.00  0.00    -0.121 NA
BRANCH  22  24
ATOM     24  C12 UNL     1       1.224  36.804  -3.910  0.00  0.00    +0.382 C 
ATOM     25  O2  UNL     1       1.572  36.911  -5.115  0.00  0.00    -0.244 OA
ATOM     26  O3  UNL     1       2.194  36.775  -2.915  0.00  0.00    -0.244 OA
ENDBRANCH  22  24
ENDBRANCH  21  22
ENDBRANCH  20  21
ENDBRANCH  19  20
ENDBRANCH  18  19
ENDBRANCH   3  18
TORSDOF 7
ENDMDL
