MODEL 1
REMARK VINA RESULT:      -6.3      0.000      0.000
REMARK  Name = ./threeLigTest/pdb/l0c0.pdb
REMARK  11 active torsions:
REMARK  status: ('A' for Active; 'I' for Inactive)
REMARK    1  A    between atoms: O1_2  and  C2_3
REMARK    2  A    between atoms: C5_6  and  C6_7
REMARK    3  A    between atoms: N2_9  and  C7_10
REMARK    4  A    between atoms: C19_23  and  O3_24
REMARK    5  A    between atoms: O3_24  and  C20_25
REMARK    6  A    between atoms: C20_25  and  C21_26
REMARK    7  A    between atoms: C21_26  and  C22_27
REMARK    8  A    between atoms: C22_27  and  C23_28
REMARK    9  A    between atoms: C23_28  and  O4_29
REMARK   10  A    between atoms: O4_29  and  C24_30
REMARK   11  A    between atoms: C27_33  and  C28_34
REMARK                            x       y       z     vdW  Elec       q    Type
REMARK                         _______ _______ _______ _____ _____    ______ ____
ROOT
ATOM      1  C2  UNL     1      -2.749  43.299  -3.722  0.00  0.00    +0.172 A 
ATOM      2  C3  UNL     1      -3.355  43.342  -2.457  0.00  0.00    +0.040 A 
ATOM      3  C4  UNL     1      -3.245  42.259  -1.584  0.00  0.00    +0.005 A 
ATOM      4  C5  UNL     1      -2.516  41.111  -1.945  0.00  0.00    +0.019 A 
ATOM      5  C18 UNL     1      -1.878  41.092  -3.198  0.00  0.00    +0.041 A 
ATOM      6  C19 UNL     1      -2.008  42.169  -4.094  0.00  0.00    +0.172 A 
ENDROOT
BRANCH   4   7
ATOM      7  C6  UNL     1      -2.467  39.953  -1.005  0.00  0.00    +0.086 C 
ATOM      8  N1  UNL     1      -1.556  39.875  -0.088  0.00  0.00    -0.171 NA
ATOM      9  N2  UNL     1      -1.732  38.720   0.671  0.00  0.00    -0.222 N 
ATOM     10  C14 UNL     1      -2.760  38.063   0.243  0.00  0.00    +0.257 C 
ATOM     11  O2  UNL     1      -3.192  36.863   0.805  0.00  0.00    -0.270 OA
ATOM     12  C15 UNL     1      -3.408  38.759  -0.919  0.00  0.00    +0.110 C 
ATOM     13  C16 UNL     1      -3.341  37.857  -2.164  0.00  0.00    +0.015 C 
ATOM     14  C17 UNL     1      -4.847  39.155  -0.540  0.00  0.00    +0.015 C 
BRANCH   9  15
ATOM     15  C7  UNL     1      -0.857  38.373   1.799  0.00  0.00    +0.108 C 
ATOM     16  C8  UNL     1      -1.564  38.673   3.142  0.00  0.00    +0.024 C 
ATOM     17  C9  UNL     1      -1.165  37.736   4.296  0.00  0.00    +0.002 C 
ATOM     18  C10 UNL     1       0.324  37.356   4.386  0.00  0.00    +0.000 C 
ATOM     19  C11 UNL     1       1.296  38.493   4.028  0.00  0.00    +0.000 C 
ATOM     20  C12 UNL     1       1.612  38.537   2.525  0.00  0.00    +0.002 C 
ATOM     21  C13 UNL     1       0.484  39.132   1.673  0.00  0.00    +0.024 C 
ENDBRANCH   9  15
ENDBRANCH   4   7
BRANCH   1  23
ATOM     22  C1  UNL     1      -2.758  45.728  -4.320  0.00  0.00    +0.253 C 
ATOM     23  O1  UNL     1      -2.877  44.347  -4.647  0.00  0.00    -0.468 OA
ENDBRANCH   1  23
BRANCH   6  24
ATOM     24  O3  UNL     1      -1.444  42.145  -5.379  0.00  0.00    -0.472 OA
BRANCH  24  25
ATOM     25  C20 UNL     1      -1.258  40.974  -6.172  0.00  0.00    +0.206 C 
BRANCH  25  26
ATOM     26  C21 UNL     1      -0.023  41.138  -7.068  0.00  0.00    +0.051 C 
BRANCH  26  27
ATOM     27  C22 UNL     1       0.897  39.900  -7.089  0.00  0.00    +0.051 C 
BRANCH  27  28
ATOM     28  C23 UNL     1       1.406  39.466  -5.704  0.00  0.00    +0.206 C 
BRANCH  28  29
ATOM     29  O4  UNL     1       1.143  38.091  -5.425  0.00  0.00    -0.475 OA
BRANCH  29  30
ATOM     30  C24 UNL     1       1.134  37.492  -4.154  0.00  0.00    +0.139 A 
ATOM     31  C25 UNL     1       0.514  38.184  -3.108  0.00  0.00    +0.037 A 
ATOM     32  C26 UNL     1       0.414  37.614  -1.838  0.00  0.00    +0.006 A 
ATOM     33  C27 UNL     1       0.942  36.336  -1.586  0.00  0.00    +0.040 A 
ATOM     34  C29 UNL     1       1.605  35.661  -2.626  0.00  0.00    +0.006 A 
ATOM     35  C30 UNL     1       1.706  36.234  -3.897  0.00  0.00    +0.037 A 
BRANCH  33  36
ATOM     36  C28 UNL     1       0.788  35.688  -0.262  0.00  0.00    +0.208 A 
ATOM     37  N3  UNL     1      -0.366  35.164   0.195  0.00  0.00    -0.106 NA
ATOM     38  N4  UNL     1      -0.089  34.729   1.416  0.00  0.00    -0.021 NA
ATOM     39  N5  UNL     1       1.179  34.976   1.706  0.00  0.00    -0.021 NA
ATOM     40  N6  UNL     1       1.746  35.575   0.675  0.00  0.00    -0.106 NA
ENDBRANCH  33  36
ENDBRANCH  29  30
ENDBRANCH  28  29
ENDBRANCH  27  28
ENDBRANCH  26  27
ENDBRANCH  25  26
ENDBRANCH  24  25
ENDBRANCH   6  24
TORSDOF 11
ENDMDL
MODEL 2
REMARK VINA RESULT:      -5.5      1.782      2.617
REMARK  Name = ./threeLigTest/pdb/l0c0.pdb
REMARK  11 active torsions:
REMARK  status: ('A' for Active; 'I' for Inactive)
REMARK    1  A    between atoms: O1_2  and  C2_3
REMARK    2  A    between atoms: C5_6  and  C6_7
REMARK    3  A    between atoms: N2_9  and  C7_10
REMARK    4  A    between atoms: C19_23  and  O3_24
REMARK    5  A    between atoms: O3_24  and  C20_25
REMARK    6  A    between atoms: C20_25  and  C21_26
REMARK    7  A    between atoms: C21_26  and  C22_27
REMARK    8  A    between atoms: C22_27  and  C23_28
REMARK    9  A    between atoms: C23_28  and  O4_29
REMARK   10  A    between atoms: O4_29  and  C24_30
REMARK   11  A    between atoms: C27_33  and  C28_34
REMARK                            x       y       z     vdW  Elec       q    Type
REMARK                         _______ _______ _______ _____ _____    ______ ____
ROOT
ATOM      1  C2  UNL     1      -3.079  43.747  -3.370  0.00  0.00    +0.172 A 
ATOM      2  C3  UNL     1      -3.935  43.859  -2.263  0.00  0.00    +0.040 A 
ATOM      3  C4  UNL     1      -4.307  42.725  -1.540  0.00  0.00    +0.005 A 
ATOM      4  C5  UNL     1      -3.825  41.452  -1.895  0.00  0.00    +0.019 A 
ATOM      5  C18 UNL     1      -2.936  41.352  -2.980  0.00  0.00    +0.041 A 
ATOM      6  C19 UNL     1      -2.579  42.488  -3.730  0.00  0.00    +0.172 A 
ENDROOT
BRANCH   4   7
ATOM      7  C6  UNL     1      -4.290  40.257  -1.130  0.00  0.00    +0.086 C 
ATOM      8  N1  UNL     1      -3.463  39.321  -0.787  0.00  0.00    -0.171 NA
ATOM      9  N2  UNL     1      -4.129  38.330  -0.069  0.00  0.00    -0.222 N 
ATOM     10  C14 UNL     1      -5.379  38.635   0.052  0.00  0.00    +0.257 C 
ATOM     11  O2  UNL     1      -6.302  37.836   0.725  0.00  0.00    -0.270 OA
ATOM     12  C15 UNL     1      -5.690  39.942  -0.620  0.00  0.00    +0.110 C 
ATOM     13  C16 UNL     1      -6.700  39.710  -1.757  0.00  0.00    +0.015 C 
ATOM     14  C17 UNL     1      -6.186  40.951   0.430  0.00  0.00    +0.015 C 
BRANCH   9  15
ATOM     15  C7  UNL     1      -3.442  37.148   0.470  0.00  0.00    +0.108 C 
ATOM     16  C8  UNL     1      -2.202  37.572   1.291  0.00  0.00    +0.024 C 
ATOM     17  C9  UNL     1      -1.859  36.633   2.462  0.00  0.00    +0.002 C 
ATOM     18  C10 UNL     1      -2.010  35.124   2.195  0.00  0.00    +0.000 C 
ATOM     19  C11 UNL     1      -1.591  34.679   0.784  0.00  0.00    +0.000 C 
ATOM     20  C12 UNL     1      -2.750  34.761  -0.221  0.00  0.00    +0.002 C 
ATOM     21  C13 UNL     1      -3.068  36.189  -0.683  0.00  0.00    +0.024 C 
ENDBRANCH   9  15
ENDBRANCH   4   7
BRANCH   1  23
ATOM     22  C1  UNL     1      -1.996  45.982  -3.664  0.00  0.00    +0.253 C 
ATOM     23  O1  UNL     1      -2.719  44.856  -4.151  0.00  0.00    -0.468 OA
ENDBRANCH   1  23
BRANCH   6  24
ATOM     24  O3  UNL     1      -1.753  42.407  -4.862  0.00  0.00    -0.472 OA
BRANCH  24  25
ATOM     25  C20 UNL     1      -0.972  41.271  -5.229  0.00  0.00    +0.206 C 
BRANCH  25  26
ATOM     26  C21 UNL     1      -0.734  41.264  -6.744  0.00  0.00    +0.051 C 
BRANCH  26  27
ATOM     27  C22 UNL     1       0.180  40.118  -7.224  0.00  0.00    +0.051 C 
BRANCH  27  28
ATOM     28  C23 UNL     1       1.180  39.621  -6.167  0.00  0.00    +0.206 C 
BRANCH  28  29
ATOM     29  O4  UNL     1       0.729  38.445  -5.492  0.00  0.00    -0.475 OA
BRANCH  29  30
ATOM     30  C24 UNL     1       0.818  38.200  -4.112  0.00  0.00    +0.139 A 
ATOM     31  C25 UNL     1       2.086  37.974  -3.566  0.00  0.00    +0.037 A 
ATOM     32  C26 UNL     1       2.248  37.790  -2.192  0.00  0.00    +0.006 A 
ATOM     33  C27 UNL     1       1.136  37.822  -1.332  0.00  0.00    +0.040 A 
ATOM     34  C29 UNL     1      -0.143  38.006  -1.887  0.00  0.00    +0.006 A 
ATOM     35  C30 UNL     1      -0.303  38.188  -3.264  0.00  0.00    +0.037 A 
BRANCH  33  36
ATOM     36  C28 UNL     1       1.296  37.695   0.135  0.00  0.00    +0.208 A 
ATOM     37  N3  UNL     1       1.231  38.729   0.997  0.00  0.00    -0.106 NA
ATOM     38  N4  UNL     1       1.465  38.200   2.190  0.00  0.00    -0.021 NA
ATOM     39  N5  UNL     1       1.670  36.897   2.074  0.00  0.00    -0.021 NA
ATOM     40  N6  UNL     1       1.571  36.559   0.801  0.00  0.00    -0.106 NA
ENDBRANCH  33  36
ENDBRANCH  29  30
ENDBRANCH  28  29
ENDBRANCH  27  28
ENDBRANCH  26  27
ENDBRANCH  25  26
ENDBRANCH  24  25
ENDBRANCH   6  24
TORSDOF 11
ENDMDL
MODEL 3
REMARK VINA RESULT:      -4.5      2.558      3.774
REMARK  Name = ./threeLigTest/pdb/l0c0.pdb
REMARK  11 active torsions:
REMARK  status: ('A' for Active; 'I' for Inactive)
REMARK    1  A    between atoms: O1_2  and  C2_3
REMARK    2  A    between atoms: C5_6  and  C6_7
REMARK    3  A    between atoms: N2_9  and  C7_10
REMARK    4  A    between atoms: C19_23  and  O3_24
REMARK    5  A    between atoms: O3_24  and  C20_25
REMARK    6  A    between atoms: C20_25  and  C21_26
REMARK    7  A    between atoms: C21_26  and  C22_27
REMARK    8  A    between atoms: C22_27  and  C23_28
REMARK    9  A    between atoms: C23_28  and  O4_29
REMARK   10  A    between atoms: O4_29  and  C24_30
REMARK   11  A    between atoms: C27_33  and  C28_34
REMARK                            x       y       z     vdW  Elec       q    Type
REMARK                         _______ _______ _______ _____ _____    ______ ____
ROOT
ATOM      1  C2  UNL     1      -3.058  43.282  -3.025  0.00  0.00    +0.172 A 
ATOM      2  C3  UNL     1      -4.018  43.555  -2.038  0.00  0.00    +0.040 A 
ATOM      3  C4  UNL     1      -4.633  42.513  -1.343  0.00  0.00    +0.005 A 
ATOM      4  C5  UNL     1      -4.297  41.173  -1.605  0.00  0.00    +0.019 A 
ATOM      5  C18 UNL     1      -3.306  40.908  -2.568  0.00  0.00    +0.041 A 
ATOM      6  C19 UNL     1      -2.702  41.953  -3.292  0.00  0.00    +0.172 A 
ENDROOT
BRANCH   4   7
ATOM      7  C6  UNL     1      -5.017  40.085  -0.879  0.00  0.00    +0.086 C 
ATOM      8  N1  UNL     1      -4.401  39.007  -0.511  0.00  0.00    -0.171 NA
ATOM      9  N2  UNL     1      -5.277  38.158   0.162  0.00  0.00    -0.222 N 
ATOM     10  C14 UNL     1      -6.450  38.696   0.230  0.00  0.00    +0.257 C 
ATOM     11  O2  UNL     1      -7.540  38.085   0.849  0.00  0.00    -0.270 OA
ATOM     12  C15 UNL     1      -6.474  40.041  -0.438  0.00  0.00    +0.110 C 
ATOM     13  C16 UNL     1      -7.455  40.012  -1.622  0.00  0.00    +0.015 C 
ATOM     14  C17 UNL     1      -6.818  41.122   0.603  0.00  0.00    +0.015 C 
BRANCH   9  15
ATOM     15  C7  UNL     1      -4.855  36.864   0.715  0.00  0.00    +0.108 C 
ATOM     16  C8  UNL     1      -4.550  36.997   2.226  0.00  0.00    +0.024 C 
ATOM     17  C9  UNL     1      -4.836  35.728   3.049  0.00  0.00    +0.002 C 
ATOM     18  C10 UNL     1      -4.452  34.388   2.397  0.00  0.00    +0.000 C 
ATOM     19  C11 UNL     1      -3.147  34.424   1.583  0.00  0.00    +0.000 C 
ATOM     20  C12 UNL     1      -3.384  34.830   0.120  0.00  0.00    +0.002 C 
ATOM     21  C13 UNL     1      -3.636  36.331  -0.072  0.00  0.00    +0.024 C 
ENDBRANCH   9  15
ENDBRANCH   4   7
BRANCH   1  23
ATOM     22  C1  UNL     1      -2.964  45.621  -3.906  0.00  0.00    +0.253 C 
ATOM     23  O1  UNL     1      -2.452  44.299  -3.779  0.00  0.00    -0.468 OA
ENDBRANCH   1  23
BRANCH   6  24
ATOM     24  O3  UNL     1      -1.764  41.713  -4.308  0.00  0.00    -0.472 OA
BRANCH  24  25
ATOM     25  C20 UNL     1      -0.627  40.860  -4.191  0.00  0.00    +0.206 C 
BRANCH  25  26
ATOM     26  C21 UNL     1      -0.870  39.554  -4.957  0.00  0.00    +0.051 C 
BRANCH  26  27
ATOM     27  C22 UNL     1       0.119  38.427  -4.593  0.00  0.00    +0.051 C 
BRANCH  27  28
ATOM     28  C23 UNL     1      -0.134  37.782  -3.219  0.00  0.00    +0.206 C 
BRANCH  28  29
ATOM     29  O4  UNL     1       0.177  38.657  -2.134  0.00  0.00    -0.475 OA
BRANCH  29  30
ATOM     30  C24 UNL     1      -0.043  38.394  -0.772  0.00  0.00    +0.139 A 
ATOM     31  C25 UNL     1      -0.920  39.232  -0.075  0.00  0.00    +0.037 A 
ATOM     32  C26 UNL     1      -1.231  38.983   1.263  0.00  0.00    +0.006 A 
ATOM     33  C27 UNL     1      -0.661  37.889   1.936  0.00  0.00    +0.040 A 
ATOM     34  C29 UNL     1       0.255  37.074   1.248  0.00  0.00    +0.006 A 
ATOM     35  C30 UNL     1       0.567  37.325  -0.091  0.00  0.00    +0.037 A 
BRANCH  33  36
ATOM     36  C28 UNL     1      -1.030  37.572   3.335  0.00  0.00    +0.208 A 
ATOM     37  N3  UNL     1      -1.396  36.348   3.764  0.00  0.00    -0.106 NA
ATOM     38  N4  UNL     1      -1.680  36.502   5.050  0.00  0.00    -0.021 NA
ATOM     39  N5  UNL     1      -1.503  37.766   5.403  0.00  0.00    -0.021 NA
ATOM     40  N6  UNL     1      -1.099  38.453   4.350  0.00  0.00    -0.106 NA
ENDBRANCH  33  36
ENDBRANCH  29  30
ENDBRANCH  28  29
ENDBRANCH  27  28
ENDBRANCH  26  27
ENDBRANCH  25  26
ENDBRANCH  24  25
ENDBRANCH   6  24
TORSDOF 11
ENDMDL
