MODEL 1
REMARK VINA RESULT:      -8.9      0.000      0.000
REMARK  Name = ./threeLigTest/pdb/l1c3.pdb
REMARK  11 active torsions:
REMARK  status: ('A' for Active; 'I' for Inactive)
REMARK    1  A    between atoms: O1_2  and  C2_3
REMARK    2  A    between atoms: C5_6  and  C6_7
REMARK    3  A    between atoms: N2_9  and  C7_10
REMARK    4  A    between atoms: C22_26  and  O3_27
REMARK    5  A    between atoms: O3_27  and  C23_28
REMARK    6  A    between atoms: C23_28  and  C24_29
REMARK    7  A    between atoms: C24_29  and  C25_30
REMARK    8  A    between atoms: C25_30  and  C26_31
REMARK    9  A    between atoms: C26_31  and  O4_32
REMARK   10  A    between atoms: O4_32  and  C27_33
REMARK   11  A    between atoms: C30_36  and  C31_37
REMARK                            x       y       z     vdW  Elec       q    Type
REMARK                         _______ _______ _______ _____ _____    ______ ____
ROOT
ATOM      1  C2  UNL     1      -6.374  39.035  -0.220  0.00  0.00    +0.172 A 
ATOM      2  C3  UNL     1      -6.129  37.723   0.216  0.00  0.00    +0.040 A 
ATOM      3  C4  UNL     1      -4.871  37.143   0.054  0.00  0.00    +0.005 A 
ATOM      4  C5  UNL     1      -3.819  37.867  -0.534  0.00  0.00    +0.018 A 
ATOM      5  C21 UNL     1      -4.072  39.182  -0.974  0.00  0.00    +0.041 A 
ATOM      6  C22 UNL     1      -5.341  39.769  -0.817  0.00  0.00    +0.172 A 
ENDROOT
BRANCH   4   7
ATOM      7  C6  UNL     1      -2.463  37.270  -0.709  0.00  0.00    +0.077 C 
ATOM      8  N1  UNL     1      -1.705  37.125   0.343  0.00  0.00    -0.180 NA
ATOM      9  N2  UNL     1      -0.372  36.648   0.351  0.00  0.00    -0.183 N 
ATOM     10  C14 UNL     1      -0.187  35.625  -0.664  0.00  0.00    +0.244 C 
ATOM     11  O2  UNL     1       0.631  34.734  -0.481  0.00  0.00    -0.273 OA
ATOM     12  C15 UNL     1      -1.070  35.563  -1.895  0.00  0.00    +0.089 C 
ATOM     13  C16 UNL     1      -0.284  35.272  -3.182  0.00  0.00    +0.035 C 
ATOM     14  C17 UNL     1       0.519  36.463  -3.616  0.00  0.00    -0.030 C 
ATOM     15  C18 UNL     1       0.054  37.707  -3.463  0.00  0.00    -0.030 C 
ATOM     16  C19 UNL     1      -1.272  38.014  -2.814  0.00  0.00    +0.032 C 
ATOM     17  C20 UNL     1      -1.947  36.827  -2.062  0.00  0.00    +0.055 C 
BRANCH   9  18
ATOM     18  C7  UNL     1       0.609  37.769   0.211  0.00  0.00    +0.099 C 
ATOM     19  C8  UNL     1       2.078  37.293   0.367  0.00  0.00    +0.022 C 
ATOM     20  C9  UNL     1       2.521  36.965   1.808  0.00  0.00    +0.002 C 
ATOM     21  C10 UNL     1       2.807  38.229   2.634  0.00  0.00    +0.000 C 
ATOM     22  C11 UNL     1       1.581  38.822   3.353  0.00  0.00    +0.000 C 
ATOM     23  C12 UNL     1       0.236  38.678   2.623  0.00  0.00    +0.002 C 
ATOM     24  C13 UNL     1       0.308  38.998   1.117  0.00  0.00    +0.022 C 
ENDBRANCH   9  18
ENDBRANCH   4   7
BRANCH   1  26
ATOM     25  C1  UNL     1      -8.085  40.341   1.053  0.00  0.00    +0.253 C 
ATOM     26  O1  UNL     1      -7.636  39.636  -0.100  0.00  0.00    -0.468 OA
ENDBRANCH   1  26
BRANCH   6  27
ATOM     27  O3  UNL     1      -5.616  41.076  -1.249  0.00  0.00    -0.472 OA
BRANCH  27  28
ATOM     28  C23 UNL     1      -5.225  42.272  -0.567  0.00  0.00    +0.206 C 
BRANCH  28  29
ATOM     29  C24 UNL     1      -4.228  43.085  -1.403  0.00  0.00    +0.051 C 
BRANCH  29  30
ATOM     30  C25 UNL     1      -4.027  42.461  -2.794  0.00  0.00    +0.051 C 
BRANCH  30  31
ATOM     31  C26 UNL     1      -2.563  42.089  -3.074  0.00  0.00    +0.206 C 
BRANCH  31  32
ATOM     32  O4  UNL     1      -1.964  42.940  -4.055  0.00  0.00    -0.475 OA
BRANCH  32  33
ATOM     33  C27 UNL     1      -2.059  44.340  -4.100  0.00  0.00    +0.139 A 
ATOM     34  C28 UNL     1      -1.259  45.079  -3.223  0.00  0.00    +0.037 A 
ATOM     35  C29 UNL     1      -1.257  46.474  -3.264  0.00  0.00    +0.006 A 
ATOM     36  C30 UNL     1      -2.061  47.158  -4.189  0.00  0.00    +0.040 A 
ATOM     37  C32 UNL     1      -2.892  46.419  -5.045  0.00  0.00    +0.006 A 
ATOM     38  C33 UNL     1      -2.905  45.023  -4.991  0.00  0.00    +0.037 A 
BRANCH  36  39
ATOM     39  C31 UNL     1      -2.013  48.633  -4.293  0.00  0.00    +0.208 A 
ATOM     40  N3  UNL     1      -1.393  49.434  -3.404  0.00  0.00    -0.106 NA
ATOM     41  N4  UNL     1      -1.623  50.659  -3.850  0.00  0.00    -0.021 NA
ATOM     42  N5  UNL     1      -2.341  50.631  -4.960  0.00  0.00    -0.021 NA
ATOM     43  N6  UNL     1      -2.599  49.371  -5.254  0.00  0.00    -0.106 NA
ENDBRANCH  36  39
ENDBRANCH  32  33
ENDBRANCH  31  32
ENDBRANCH  30  31
ENDBRANCH  29  30
ENDBRANCH  28  29
ENDBRANCH  27  28
ENDBRANCH   6  27
TORSDOF 11
ENDMDL
MODEL 2
REMARK VINA RESULT:      -7.5      1.666      3.298
REMARK  Name = ./threeLigTest/pdb/l1c3.pdb
REMARK  11 active torsions:
REMARK  status: ('A' for Active; 'I' for Inactive)
REMARK    1  A    between atoms: O1_2  and  C2_3
REMARK    2  A    between atoms: C5_6  and  C6_7
REMARK    3  A    between atoms: N2_9  and  C7_10
REMARK    4  A    between atoms: C22_26  and  O3_27
REMARK    5  A    between atoms: O3_27  and  C23_28
REMARK    6  A    between atoms: C23_28  and  C24_29
REMARK    7  A    between atoms: C24_29  and  C25_30
REMARK    8  A    between atoms: C25_30  and  C26_31
REMARK    9  A    between atoms: C26_31  and  O4_32
REMARK   10  A    between atoms: O4_32  and  C27_33
REMARK   11  A    between atoms: C30_36  and  C31_37
REMARK                            x       y       z     vdW  Elec       q    Type
REMARK                         _______ _______ _______ _____ _____    ______ ____
ROOT
ATOM      1  C2  UNL     1      -5.378  39.838  -0.496  0.00  0.00    +0.172 A 
ATOM      2  C3  UNL     1      -5.234  38.442  -0.556  0.00  0.00    +0.040 A 
ATOM      3  C4  UNL     1      -3.972  37.863  -0.689  0.00  0.00    +0.005 A 
ATOM      4  C5  UNL     1      -2.818  38.665  -0.748  0.00  0.00    +0.018 A 
ATOM      5  C21 UNL     1      -2.970  40.065  -0.692  0.00  0.00    +0.041 A 
ATOM      6  C22 UNL     1      -4.241  40.654  -0.564  0.00  0.00    +0.172 A 
ENDROOT
BRANCH   4   7
ATOM      7  C6  UNL     1      -1.457  38.068  -0.881  0.00  0.00    +0.077 C 
ATOM      8  N1  UNL     1      -0.568  38.699  -1.596  0.00  0.00    -0.180 NA
ATOM      9  N2  UNL     1       0.742  38.245  -1.888  0.00  0.00    -0.183 N 
ATOM     10  C14 UNL     1       1.292  37.509  -0.762  0.00  0.00    +0.244 C 
ATOM     11  O2  UNL     1       2.499  37.522  -0.565  0.00  0.00    -0.273 OA
ATOM     12  C15 UNL     1       0.395  36.821   0.248  0.00  0.00    +0.089 C 
ATOM     13  C16 UNL     1       0.898  35.425   0.644  0.00  0.00    +0.035 C 
ATOM     14  C17 UNL     1       0.689  34.433  -0.462  0.00  0.00    -0.030 C 
ATOM     15  C18 UNL     1      -0.394  34.484  -1.245  0.00  0.00    -0.030 C 
ATOM     16  C19 UNL     1      -1.454  35.548  -1.113  0.00  0.00    +0.032 C 
ATOM     17  C20 UNL     1      -1.082  36.764  -0.210  0.00  0.00    +0.055 C 
BRANCH   9  18
ATOM     18  C7  UNL     1       0.774  37.450  -3.155  0.00  0.00    +0.099 C 
ATOM     19  C8  UNL     1       2.148  37.534  -3.871  0.00  0.00    +0.022 C 
ATOM     20  C9  UNL     1       2.443  38.865  -4.592  0.00  0.00    +0.002 C 
ATOM     21  C10 UNL     1       1.699  38.981  -5.932  0.00  0.00    +0.000 C 
ATOM     22  C11 UNL     1       0.280  39.571  -5.835  0.00  0.00    +0.000 C 
ATOM     23  C12 UNL     1      -0.504  39.235  -4.556  0.00  0.00    +0.002 C 
ATOM     24  C13 UNL     1      -0.399  37.758  -4.131  0.00  0.00    +0.022 C 
ENDBRANCH   9  18
ENDBRANCH   4   7
BRANCH   1  26
ATOM     25  C1  UNL     1      -7.635  40.086   0.552  0.00  0.00    +0.253 C 
ATOM     26  O1  UNL     1      -6.636  40.452  -0.394  0.00  0.00    -0.468 OA
ENDBRANCH   1  26
BRANCH   6  27
ATOM     27  O3  UNL     1      -4.417  42.045  -0.508  0.00  0.00    -0.472 OA
BRANCH  27  28
ATOM     28  C23 UNL     1      -4.272  42.943  -1.613  0.00  0.00    +0.206 C 
BRANCH  28  29
ATOM     29  C24 UNL     1      -4.383  42.198  -2.950  0.00  0.00    +0.051 C 
BRANCH  29  30
ATOM     30  C25 UNL     1      -3.460  42.817  -4.012  0.00  0.00    +0.051 C 
BRANCH  30  31
ATOM     31  C26 UNL     1      -1.976  42.500  -3.770  0.00  0.00    +0.206 C 
BRANCH  31  32
ATOM     32  O4  UNL     1      -1.293  43.569  -3.113  0.00  0.00    -0.475 OA
BRANCH  32  33
ATOM     33  C27 UNL     1      -1.511  44.940  -3.323  0.00  0.00    +0.139 A 
ATOM     34  C28 UNL     1      -0.471  45.823  -3.017  0.00  0.00    +0.037 A 
ATOM     35  C29 UNL     1      -0.600  47.191  -3.265  0.00  0.00    +0.006 A 
ATOM     36  C30 UNL     1      -1.779  47.701  -3.829  0.00  0.00    +0.040 A 
ATOM     37  C32 UNL     1      -2.837  46.822  -4.104  0.00  0.00    +0.006 A 
ATOM     38  C33 UNL     1      -2.714  45.455  -3.838  0.00  0.00    +0.037 A 
BRANCH  36  39
ATOM     39  C31 UNL     1      -1.901  49.137  -4.166  0.00  0.00    +0.208 A 
ATOM     40  N3  UNL     1      -2.390  49.601  -5.332  0.00  0.00    -0.106 NA
ATOM     41  N4  UNL     1      -2.286  50.916  -5.231  0.00  0.00    -0.021 NA
ATOM     42  N5  UNL     1      -1.767  51.262  -4.066  0.00  0.00    -0.021 NA
ATOM     43  N6  UNL     1      -1.515  50.161  -3.383  0.00  0.00    -0.106 NA
ENDBRANCH  36  39
ENDBRANCH  32  33
ENDBRANCH  31  32
ENDBRANCH  30  31
ENDBRANCH  29  30
ENDBRANCH  28  29
ENDBRANCH  27  28
ENDBRANCH   6  27
TORSDOF 11
ENDMDL
MODEL 3
REMARK VINA RESULT:      -6.7      4.276      7.075
REMARK  Name = ./threeLigTest/pdb/l1c3.pdb
REMARK  11 active torsions:
REMARK  status: ('A' for Active; 'I' for Inactive)
REMARK    1  A    between atoms: O1_2  and  C2_3
REMARK    2  A    between atoms: C5_6  and  C6_7
REMARK    3  A    between atoms: N2_9  and  C7_10
REMARK    4  A    between atoms: C22_26  and  O3_27
REMARK    5  A    between atoms: O3_27  and  C23_28
REMARK    6  A    between atoms: C23_28  and  C24_29
REMARK    7  A    between atoms: C24_29  and  C25_30
REMARK    8  A    between atoms: C25_30  and  C26_31
REMARK    9  A    between atoms: C26_31  and  O4_32
REMARK   10  A    between atoms: O4_32  and  C27_33
REMARK   11  A    between atoms: C30_36  and  C31_37
REMARK                            x       y       z     vdW  Elec       q    Type
REMARK                         _______ _______ _______ _____ _____    ______ ____
ROOT
ATOM      1  C2  UNL     1      -3.364  42.338  -1.558  0.00  0.00    +0.172 A 
ATOM      2  C3  UNL     1      -1.992  42.150  -1.792  0.00  0.00    +0.040 A 
ATOM      3  C4  UNL     1      -1.314  41.074  -1.220  0.00  0.00    +0.005 A 
ATOM      4  C5  UNL     1      -1.994  40.148  -0.410  0.00  0.00    +0.018 A 
ATOM      5  C21 UNL     1      -3.370  40.344  -0.174  0.00  0.00    +0.041 A 
ATOM      6  C22 UNL     1      -4.057  41.431  -0.746  0.00  0.00    +0.172 A 
ENDROOT
BRANCH   4   7
ATOM      7  C6  UNL     1      -1.292  38.984   0.206  0.00  0.00    +0.077 C 
ATOM      8  N1  UNL     1      -1.986  38.150   0.929  0.00  0.00    -0.180 NA
ATOM      9  N2  UNL     1      -1.474  37.040   1.644  0.00  0.00    -0.183 N 
ATOM     10  C14 UNL     1      -0.370  36.430   0.921  0.00  0.00    +0.244 C 
ATOM     11  O2  UNL     1      -0.166  35.229   1.032  0.00  0.00    -0.273 OA
ATOM     12  C15 UNL     1       0.465  37.224  -0.064  0.00  0.00    +0.089 C 
ATOM     13  C16 UNL     1       1.968  36.935   0.055  0.00  0.00    +0.035 C 
ATOM     14  C17 UNL     1       2.549  37.551   1.293  0.00  0.00    -0.030 C 
ATOM     15  C18 UNL     1       2.127  38.737   1.742  0.00  0.00    -0.030 C 
ATOM     16  C19 UNL     1       1.022  39.520   1.080  0.00  0.00    +0.032 C 
ATOM     17  C20 UNL     1       0.190  38.744   0.013  0.00  0.00    +0.055 C 
BRANCH   9  18
ATOM     18  C7  UNL     1      -1.096  37.418   3.041  0.00  0.00    +0.099 C 
ATOM     19  C8  UNL     1      -0.239  36.327   3.738  0.00  0.00    +0.022 C 
ATOM     20  C9  UNL     1      -1.006  35.067   4.190  0.00  0.00    +0.002 C 
ATOM     21  C10 UNL     1      -1.813  35.304   5.476  0.00  0.00    +0.000 C 
ATOM     22  C11 UNL     1      -3.235  35.853   5.255  0.00  0.00    +0.000 C 
ATOM     23  C12 UNL     1      -3.412  36.803   4.060  0.00  0.00    +0.002 C 
ATOM     24  C13 UNL     1      -2.296  37.856   3.931  0.00  0.00    +0.022 C 
ENDBRANCH   9  18
ENDBRANCH   4   7
BRANCH   1  26
ATOM     25  C1  UNL     1      -3.461  44.525  -2.766  0.00  0.00    +0.253 C 
ATOM     26  O1  UNL     1      -4.068  43.427  -2.094  0.00  0.00    -0.468 OA
ENDBRANCH   1  26
BRANCH   6  27
ATOM     27  O3  UNL     1      -5.426  41.648  -0.524  0.00  0.00    -0.472 OA
BRANCH  27  28
ATOM     28  C23 UNL     1      -6.119  41.381   0.700  0.00  0.00    +0.206 C 
BRANCH  28  29
ATOM     29  C24 UNL     1      -7.331  40.471   0.462  0.00  0.00    +0.051 C 
BRANCH  29  30
ATOM     30  C25 UNL     1      -6.940  39.217  -0.338  0.00  0.00    +0.051 C 
BRANCH  30  31
ATOM     31  C26 UNL     1      -6.169  38.190   0.505  0.00  0.00    +0.206 C 
BRANCH  31  32
ATOM     32  O4  UNL     1      -5.854  37.008  -0.233  0.00  0.00    -0.475 OA
BRANCH  32  33
ATOM     33  C27 UNL     1      -4.686  36.789  -0.981  0.00  0.00    +0.139 A 
ATOM     34  C28 UNL     1      -4.332  37.746  -1.937  0.00  0.00    +0.037 A 
ATOM     35  C29 UNL     1      -3.149  37.621  -2.667  0.00  0.00    +0.006 A 
ATOM     36  C30 UNL     1      -2.294  36.529  -2.451  0.00  0.00    +0.040 A 
ATOM     37  C32 UNL     1      -2.666  35.549  -1.518  0.00  0.00    +0.006 A 
ATOM     38  C33 UNL     1      -3.859  35.666  -0.800  0.00  0.00    +0.037 A 
BRANCH  36  39
ATOM     39  C31 UNL     1      -1.002  36.424  -3.163  0.00  0.00    +0.208 A 
ATOM     40  N3  UNL     1      -0.357  37.468  -3.720  0.00  0.00    -0.106 NA
ATOM     41  N4  UNL     1       0.718  36.932  -4.274  0.00  0.00    -0.021 NA
ATOM     42  N5  UNL     1       0.754  35.626  -4.073  0.00  0.00    -0.021 NA
ATOM     43  N6  UNL     1      -0.318  35.285  -3.381  0.00  0.00    -0.106 NA
ENDBRANCH  36  39
ENDBRANCH  32  33
ENDBRANCH  31  32
ENDBRANCH  30  31
ENDBRANCH  29  30
ENDBRANCH  28  29
ENDBRANCH  27  28
ENDBRANCH   6  27
TORSDOF 11
ENDMDL
