MODEL 1
REMARK VINA RESULT:      -3.5      0.000      0.000
REMARK  Name = ./threeLigTest/pdb/l1c4.pdb
REMARK  11 active torsions:
REMARK  status: ('A' for Active; 'I' for Inactive)
REMARK    1  A    between atoms: O1_2  and  C2_3
REMARK    2  A    between atoms: C5_6  and  C6_7
REMARK    3  A    between atoms: N2_9  and  C7_10
REMARK    4  A    between atoms: C22_26  and  O3_27
REMARK    5  A    between atoms: O3_27  and  C23_28
REMARK    6  A    between atoms: C23_28  and  C24_29
REMARK    7  A    between atoms: C24_29  and  C25_30
REMARK    8  A    between atoms: C25_30  and  C26_31
REMARK    9  A    between atoms: C26_31  and  O4_32
REMARK   10  A    between atoms: O4_32  and  C27_33
REMARK   11  A    between atoms: C30_36  and  C31_37
REMARK                            x       y       z     vdW  Elec       q    Type
REMARK                         _______ _______ _______ _____ _____    ______ ____
ROOT
ATOM      1  C2  UNL     1      -4.342  37.863  -1.466  0.00  0.00    +0.172 A 
ATOM      2  C3  UNL     1      -3.137  38.276  -2.067  0.00  0.00    +0.040 A 
ATOM      3  C4  UNL     1      -1.923  37.711  -1.675  0.00  0.00    +0.005 A 
ATOM      4  C5  UNL     1      -1.890  36.728  -0.678  0.00  0.00    +0.018 A 
ATOM      5  C21 UNL     1      -3.090  36.294  -0.097  0.00  0.00    +0.041 A 
ATOM      6  C22 UNL     1      -4.320  36.857  -0.486  0.00  0.00    +0.172 A 
ENDROOT
BRANCH   4   7
ATOM      7  C6  UNL     1      -0.611  36.113  -0.269  0.00  0.00    +0.077 C 
ATOM      8  N1  UNL     1      -0.375  36.006   1.006  0.00  0.00    -0.180 NA
ATOM      9  N2  UNL     1       0.730  35.345   1.602  0.00  0.00    -0.183 N 
ATOM     10  C14 UNL     1       1.857  35.190   0.696  0.00  0.00    +0.244 C 
ATOM     11  O2  UNL     1       2.864  34.610   1.085  0.00  0.00    -0.273 OA
ATOM     12  C15 UNL     1       1.804  35.741  -0.710  0.00  0.00    +0.089 C 
ATOM     13  C16 UNL     1       2.820  35.058  -1.651  0.00  0.00    +0.035 C 
ATOM     14  C17 UNL     1       2.622  35.460  -3.092  0.00  0.00    -0.030 C 
ATOM     15  C18 UNL     1       1.455  35.944  -3.553  0.00  0.00    -0.030 C 
ATOM     16  C19 UNL     1       0.308  36.300  -2.642  0.00  0.00    +0.032 C 
ATOM     17  C20 UNL     1       0.383  35.576  -1.277  0.00  0.00    +0.055 C 
BRANCH   9  18
ATOM     18  C7  UNL     1       1.111  36.070   2.846  0.00  0.00    +0.099 C 
ATOM     19  C8  UNL     1       0.244  35.607   4.057  0.00  0.00    +0.022 C 
ATOM     20  C9  UNL     1      -1.023  36.443   4.320  0.00  0.00    +0.002 C 
ATOM     21  C10 UNL     1      -0.754  37.643   5.240  0.00  0.00    +0.000 C 
ATOM     22  C11 UNL     1      -0.057  38.809   4.531  0.00  0.00    +0.000 C 
ATOM     23  C12 UNL     1       1.303  38.428   3.925  0.00  0.00    +0.002 C 
ATOM     24  C13 UNL     1       1.155  37.613   2.629  0.00  0.00    +0.022 C 
ENDBRANCH   9  18
ENDBRANCH   4   7
BRANCH   1  26
ATOM     25  C1  UNL     1      -5.770  39.763  -2.249  0.00  0.00    +0.253 C 
ATOM     26  O1  UNL     1      -5.581  38.419  -1.825  0.00  0.00    -0.468 OA
ENDBRANCH   1  26
BRANCH   6  27
ATOM     27  O3  UNL     1      -5.541  36.446   0.074  0.00  0.00    -0.472 OA
BRANCH  27  28
ATOM     28  C23 UNL     1      -6.231  37.106   1.139  0.00  0.00    +0.206 C 
BRANCH  28  29
ATOM     29  C24 UNL     1      -7.366  37.993   0.609  0.00  0.00    +0.051 C 
BRANCH  29  30
ATOM     30  C25 UNL     1      -7.608  39.214   1.507  0.00  0.00    +0.051 C 
BRANCH  30  31
ATOM     31  C26 UNL     1      -7.543  40.521   0.704  0.00  0.00    +0.206 C 
BRANCH  31  32
ATOM     32  O4  UNL     1      -6.390  41.278   1.075  0.00  0.00    -0.475 OA
BRANCH  32  33
ATOM     33  C27 UNL     1      -5.430  41.772   0.174  0.00  0.00    +0.139 A 
ATOM     34  C28 UNL     1      -5.723  42.942  -0.531  0.00  0.00    +0.037 A 
ATOM     35  C29 UNL     1      -4.775  43.516  -1.384  0.00  0.00    +0.006 A 
ATOM     36  C30 UNL     1      -3.514  42.920  -1.555  0.00  0.00    +0.040 A 
ATOM     37  C32 UNL     1      -3.238  41.716  -0.885  0.00  0.00    +0.006 A 
ATOM     38  C33 UNL     1      -4.186  41.145  -0.031  0.00  0.00    +0.037 A 
BRANCH  36  39
ATOM     39  C31 UNL     1      -2.497  43.571  -2.415  0.00  0.00    +0.208 A 
ATOM     40  N3  UNL     1      -2.079  43.082  -3.598  0.00  0.00    -0.106 NA
ATOM     41  N4  UNL     1      -1.209  43.974  -4.052  0.00  0.00    -0.021 NA
ATOM     42  N5  UNL     1      -1.096  44.975  -3.190  0.00  0.00    -0.021 NA
ATOM     43  N6  UNL     1      -1.889  44.744  -2.161  0.00  0.00    -0.106 NA
ENDBRANCH  36  39
ENDBRANCH  32  33
ENDBRANCH  31  32
ENDBRANCH  30  31
ENDBRANCH  29  30
ENDBRANCH  28  29
ENDBRANCH  27  28
ENDBRANCH   6  27
TORSDOF 11
ENDMDL
MODEL 2
REMARK VINA RESULT:      -1.4      1.384      3.929
REMARK  Name = ./threeLigTest/pdb/l1c4.pdb
REMARK  11 active torsions:
REMARK  status: ('A' for Active; 'I' for Inactive)
REMARK    1  A    between atoms: O1_2  and  C2_3
REMARK    2  A    between atoms: C5_6  and  C6_7
REMARK    3  A    between atoms: N2_9  and  C7_10
REMARK    4  A    between atoms: C22_26  and  O3_27
REMARK    5  A    between atoms: O3_27  and  C23_28
REMARK    6  A    between atoms: C23_28  and  C24_29
REMARK    7  A    between atoms: C24_29  and  C25_30
REMARK    8  A    between atoms: C25_30  and  C26_31
REMARK    9  A    between atoms: C26_31  and  O4_32
REMARK   10  A    between atoms: O4_32  and  C27_33
REMARK   11  A    between atoms: C30_36  and  C31_37
REMARK                            x       y       z     vdW  Elec       q    Type
REMARK                         _______ _______ _______ _____ _____    ______ ____
ROOT
ATOM      1  C2  UNL     1      -3.949  38.626  -1.796  0.00  0.00    +0.172 A 
ATOM      2  C3  UNL     1      -2.655  39.159  -1.953  0.00  0.00    +0.040 A 
ATOM      3  C4  UNL     1      -1.665  38.900  -1.005  0.00  0.00    +0.005 A 
ATOM      4  C5  UNL     1      -1.950  38.108   0.116  0.00  0.00    +0.018 A 
ATOM      5  C21 UNL     1      -3.229  37.553   0.262  0.00  0.00    +0.041 A 
ATOM      6  C22 UNL     1      -4.234  37.808  -0.691  0.00  0.00    +0.172 A 
ENDROOT
BRANCH   4   7
ATOM      7  C6  UNL     1      -0.903  37.816   1.116  0.00  0.00    +0.077 C 
ATOM      8  N1  UNL     1       0.325  37.728   0.693  0.00  0.00    -0.180 NA
ATOM      9  N2  UNL     1       1.481  37.573   1.500  0.00  0.00    -0.183 N 
ATOM     10  C14 UNL     1       1.186  37.037   2.819  0.00  0.00    +0.244 C 
ATOM     11  O2  UNL     1       2.099  36.882   3.622  0.00  0.00    -0.273 OA
ATOM     12  C15 UNL     1      -0.225  36.664   3.208  0.00  0.00    +0.089 C 
ATOM     13  C16 UNL     1      -0.424  36.616   4.738  0.00  0.00    +0.035 C 
ATOM     14  C17 UNL     1      -1.875  36.450   5.120  0.00  0.00    -0.030 C 
ATOM     15  C18 UNL     1      -2.882  36.781   4.292  0.00  0.00    -0.030 C 
ATOM     16  C19 UNL     1      -2.656  37.168   2.853  0.00  0.00    +0.032 C 
ATOM     17  C20 UNL     1      -1.214  37.667   2.590  0.00  0.00    +0.055 C 
BRANCH   9  18
ATOM     18  C7  UNL     1       2.471  36.736   0.768  0.00  0.00    +0.099 C 
ATOM     19  C8  UNL     1       2.867  37.388  -0.592  0.00  0.00    +0.022 C 
ATOM     20  C9  UNL     1       2.038  36.934  -1.809  0.00  0.00    +0.002 C 
ATOM     21  C10 UNL     1       2.619  35.682  -2.481  0.00  0.00    +0.000 C 
ATOM     22  C11 UNL     1       2.321  34.388  -1.716  0.00  0.00    +0.000 C 
ATOM     23  C12 UNL     1       2.867  34.389  -0.279  0.00  0.00    +0.002 C 
ATOM     24  C13 UNL     1       2.014  35.249   0.668  0.00  0.00    +0.022 C 
ENDBRANCH   9  18
ENDBRANCH   4   7
BRANCH   1  26
ATOM     25  C1  UNL     1      -6.194  39.540  -2.417  0.00  0.00    +0.253 C 
ATOM     26  O1  UNL     1      -4.974  38.877  -2.723  0.00  0.00    -0.468 OA
ENDBRANCH   1  26
BRANCH   6  27
ATOM     27  O3  UNL     1      -5.526  37.268  -0.577  0.00  0.00    -0.472 OA
BRANCH  27  28
ATOM     28  C23 UNL     1      -6.229  37.047   0.649  0.00  0.00    +0.206 C 
BRANCH  28  29
ATOM     29  C24 UNL     1      -7.543  37.840   0.694  0.00  0.00    +0.051 C 
BRANCH  29  30
ATOM     30  C25 UNL     1      -7.431  39.088   1.579  0.00  0.00    +0.051 C 
BRANCH  30  31
ATOM     31  C26 UNL     1      -8.365  40.205   1.094  0.00  0.00    +0.206 C 
BRANCH  31  32
ATOM     32  O4  UNL     1      -7.747  41.482   1.265  0.00  0.00    -0.475 OA
BRANCH  32  33
ATOM     33  C27 UNL     1      -6.635  41.940   0.538  0.00  0.00    +0.139 A 
ATOM     34  C28 UNL     1      -5.705  41.000   0.086  0.00  0.00    +0.037 A 
ATOM     35  C29 UNL     1      -4.620  41.394  -0.703  0.00  0.00    +0.006 A 
ATOM     36  C30 UNL     1      -4.440  42.744  -1.048  0.00  0.00    +0.040 A 
ATOM     37  C32 UNL     1      -5.347  43.697  -0.552  0.00  0.00    +0.006 A 
ATOM     38  C33 UNL     1      -6.431  43.301   0.234  0.00  0.00    +0.037 A 
BRANCH  36  39
ATOM     39  C31 UNL     1      -3.321  43.139  -1.936  0.00  0.00    +0.208 A 
ATOM     40  N3  UNL     1      -3.385  43.147  -3.281  0.00  0.00    -0.106 NA
ATOM     41  N4  UNL     1      -2.202  43.595  -3.681  0.00  0.00    -0.021 NA
ATOM     42  N5  UNL     1      -1.440  43.859  -2.629  0.00  0.00    -0.021 NA
ATOM     43  N6  UNL     1      -2.116  43.580  -1.531  0.00  0.00    -0.106 NA
ENDBRANCH  36  39
ENDBRANCH  32  33
ENDBRANCH  31  32
ENDBRANCH  30  31
ENDBRANCH  29  30
ENDBRANCH  28  29
ENDBRANCH  27  28
ENDBRANCH   6  27
TORSDOF 11
ENDMDL
