MODEL 1
REMARK VINA RESULT:      -7.7      0.000      0.000
REMARK  Name = ./threeLigTest/pdb/l2c1.pdb
REMARK  7 active torsions:
REMARK  status: ('A' for Active; 'I' for Inactive)
REMARK    1  A    between atoms: N4_8  and  C5_9
REMARK    2  A    between atoms: C6_11  and  C7_12
REMARK    3  A    between atoms: C7_12  and  S1_13
REMARK    4  A    between atoms: S1_13  and  C8_14
REMARK    5  A    between atoms: C8_14  and  C9_15
REMARK    6  A    between atoms: C9_15  and  C10_16
REMARK    7  A    between atoms: C10_16  and  C11_17
REMARK                            x       y       z     vdW  Elec       q    Type
REMARK                         _______ _______ _______ _____ _____    ______ ____
ROOT
ATOM      1  C5  UNL     1      -2.528  41.541  -3.195  0.00  0.00    +0.241 C 
ATOM      2  O1  UNL     1      -2.141  42.867  -3.468  0.00  0.00    -0.332 OA
ATOM      3  C6  UNL     1      -2.698  43.694  -2.467  0.00  0.00    +0.161 C 
ATOM      4  C12 UNL     1      -3.445  42.826  -1.444  0.00  0.00    +0.214 C 
ATOM      5  O4  UNL     1      -4.828  42.896  -1.693  0.00  0.00    -0.218 OA
ATOM      6  C13 UNL     1      -2.912  41.441  -1.730  0.00  0.00    +0.234 C 
ATOM      7  O5  UNL     1      -3.876  40.439  -1.531  0.00  0.00    -0.216 OA
ENDROOT
BRANCH   1  15
ATOM      8  N1  UNL     1       1.732  38.118  -5.608  0.00  0.00    -0.125 NA
ATOM      9  C1  UNL     1       0.850  39.063  -5.699  0.00  0.00    +0.206 A 
ATOM     10  C2  UNL     1       0.098  39.447  -4.596  0.00  0.00    +0.154 A 
ATOM     11  C3  UNL     1      -0.825  40.430  -4.711  0.00  0.00    +0.169 A 
ATOM     12  N2  UNL     1      -1.049  41.083  -5.876  0.00  0.00    -0.205 NA
ATOM     13  C4  UNL     1      -0.313  40.719  -6.969  0.00  0.00    +0.202 A 
ATOM     14  N3  UNL     1       0.623  39.719  -6.882  0.00  0.00    -0.202 NA
ATOM     15  N4  UNL     1      -1.437  40.622  -3.529  0.00  0.00    -0.269 N 
ATOM     16  C14 UNL     1      -0.845  39.718  -2.704  0.00  0.00    +0.182 A 
ATOM     17  N6  UNL     1       0.104  38.981  -3.335  0.00  0.00    -0.219 NA
ENDBRANCH   1  15
BRANCH   3  18
ATOM     18  C7  UNL     1      -1.585  44.520  -1.803  0.00  0.00    +0.090 C 
BRANCH  18  19
ATOM     19  S1  UNL     1      -0.833  45.690  -2.997  0.00  0.00    -0.138 S 
BRANCH  19  20
ATOM     20  C8  UNL     1      -2.402  46.385  -3.622  0.00  0.00    +0.060 C 
BRANCH  20  21
ATOM     21  C9  UNL     1      -2.116  47.542  -4.583  0.00  0.00    +0.042 C 
BRANCH  21  22
ATOM     22  C10 UNL     1      -3.404  48.235  -5.070  0.00  0.00    +0.195 C 
ATOM     23  N5  UNL     1      -3.662  47.929  -6.479  0.00  0.00    -0.121 NA
BRANCH  22  24
ATOM     24  C11 UNL     1      -3.269  49.722  -4.891  0.00  0.00    +0.382 C 
ATOM     25  O2  UNL     1      -2.225  50.318  -5.269  0.00  0.00    -0.244 OA
ATOM     26  O3  UNL     1      -4.286  50.443  -4.278  0.00  0.00    -0.244 OA
ENDBRANCH  22  24
ENDBRANCH  21  22
ENDBRANCH  20  21
ENDBRANCH  19  20
ENDBRANCH  18  19
ENDBRANCH   3  18
TORSDOF 7
ENDMDL
MODEL 2
REMARK VINA RESULT:      -7.5      4.382      7.166
REMARK  Name = ./threeLigTest/pdb/l2c1.pdb
REMARK  7 active torsions:
REMARK  status: ('A' for Active; 'I' for Inactive)
REMARK    1  A    between atoms: N4_8  and  C5_9
REMARK    2  A    between atoms: C6_11  and  C7_12
REMARK    3  A    between atoms: C7_12  and  S1_13
REMARK    4  A    between atoms: S1_13  and  C8_14
REMARK    5  A    between atoms: C8_14  and  C9_15
REMARK    6  A    between atoms: C9_15  and  C10_16
REMARK    7  A    between atoms: C10_16  and  C11_17
REMARK                            x       y       z     vdW  Elec       q    Type
REMARK                         _______ _______ _______ _____ _____    ______ ____
ROOT
ATOM      1  C5  UNL     1      -1.811  41.037  -2.041  0.00  0.00    +0.241 C 
ATOM      2  O1  UNL     1      -2.640  40.034  -2.577  0.00  0.00    -0.332 OA
ATOM      3  C6  UNL     1      -2.852  39.065  -1.570  0.00  0.00    +0.161 C 
ATOM      4  C12 UNL     1      -2.157  39.513  -0.277  0.00  0.00    +0.214 C 
ATOM      5  O4  UNL     1      -0.949  38.807  -0.127  0.00  0.00    -0.218 OA
ATOM      6  C13 UNL     1      -1.900  40.981  -0.527  0.00  0.00    +0.234 C 
ATOM      7  O5  UNL     1      -0.707  41.429   0.063  0.00  0.00    -0.216 OA
ENDROOT
BRANCH   1  15
ATOM      8  N1  UNL     1      -2.987  46.040  -5.087  0.00  0.00    -0.125 NA
ATOM      9  C1  UNL     1      -2.587  44.808  -5.041  0.00  0.00    +0.206 A 
ATOM     10  C2  UNL     1      -2.578  44.105  -3.843  0.00  0.00    +0.154 A 
ATOM     11  C3  UNL     1      -2.150  42.821  -3.812  0.00  0.00    +0.169 A 
ATOM     12  N2  UNL     1      -1.727  42.170  -4.922  0.00  0.00    -0.205 NA
ATOM     13  C4  UNL     1      -1.735  42.848  -6.108  0.00  0.00    +0.202 A 
ATOM     14  N3  UNL     1      -2.157  44.154  -6.166  0.00  0.00    -0.202 NA
ATOM     15  N4  UNL     1      -2.215  42.348  -2.555  0.00  0.00    -0.269 N 
ATOM     16  C14 UNL     1      -2.700  43.396  -1.837  0.00  0.00    +0.182 A 
ATOM     17  N6  UNL     1      -2.933  44.490  -2.605  0.00  0.00    -0.219 NA
ENDBRANCH   1  15
BRANCH   3  18
ATOM     18  C7  UNL     1      -4.361  38.860  -1.362  0.00  0.00    +0.090 C 
BRANCH  18  19
ATOM     19  S1  UNL     1      -4.684  37.458  -0.226  0.00  0.00    -0.138 S 
BRANCH  19  20
ATOM     20  C8  UNL     1      -6.351  37.991   0.293  0.00  0.00    +0.060 C 
BRANCH  20  21
ATOM     21  C9  UNL     1      -6.470  39.513   0.188  0.00  0.00    +0.042 C 
BRANCH  21  22
ATOM     22  C10 UNL     1      -7.682  40.064   0.966  0.00  0.00    +0.195 C 
ATOM     23  N5  UNL     1      -8.937  39.705   0.302  0.00  0.00    -0.121 NA
BRANCH  22  24
ATOM     24  C11 UNL     1      -7.572  41.560   1.068  0.00  0.00    +0.382 C 
ATOM     25  O2  UNL     1      -8.514  42.237   1.561  0.00  0.00    -0.244 OA
ATOM     26  O3  UNL     1      -6.441  42.207   0.588  0.00  0.00    -0.244 OA
ENDBRANCH  22  24
ENDBRANCH  21  22
ENDBRANCH  20  21
ENDBRANCH  19  20
ENDBRANCH  18  19
ENDBRANCH   3  18
TORSDOF 7
ENDMDL
MODEL 3
REMARK VINA RESULT:      -6.9      3.805      5.689
REMARK  Name = ./threeLigTest/pdb/l2c1.pdb
REMARK  7 active torsions:
REMARK  status: ('A' for Active; 'I' for Inactive)
REMARK    1  A    between atoms: N4_8  and  C5_9
REMARK    2  A    between atoms: C6_11  and  C7_12
REMARK    3  A    between atoms: C7_12  and  S1_13
REMARK    4  A    between atoms: S1_13  and  C8_14
REMARK    5  A    between atoms: C8_14  and  C9_15
REMARK    6  A    between atoms: C9_15  and  C10_16
REMARK    7  A    between atoms: C10_16  and  C11_17
REMARK                            x       y       z     vdW  Elec       q    Type
REMARK                         _______ _______ _______ _____ _____    ______ ____
ROOT
ATOM      1  C5  UNL     1      -1.794  38.382  -1.918  0.00  0.00    +0.241 C 
ATOM      2  O1  UNL     1      -1.636  39.739  -1.580  0.00  0.00    -0.332 OA
ATOM      3  C6  UNL     1      -1.214  40.428  -2.739  0.00  0.00    +0.161 C 
ATOM      4  C12 UNL     1      -1.158  39.450  -3.921  0.00  0.00    +0.214 C 
ATOM      5  O4  UNL     1       0.178  39.077  -4.156  0.00  0.00    -0.218 OA
ATOM      6  C13 UNL     1      -1.969  38.276  -3.422  0.00  0.00    +0.234 C 
ATOM      7  O5  UNL     1      -1.488  37.046  -3.898  0.00  0.00    -0.216 OA
ENDROOT
BRANCH   1  15
ATOM      8  N1  UNL     1      -6.887  37.118   0.937  0.00  0.00    -0.125 NA
ATOM      9  C1  UNL     1      -6.148  37.920   0.237  0.00  0.00    +0.206 A 
ATOM     10  C2  UNL     1      -4.883  37.538  -0.190  0.00  0.00    +0.154 A 
ATOM     11  C3  UNL     1      -4.123  38.391  -0.914  0.00  0.00    +0.169 A 
ATOM     12  N2  UNL     1      -4.550  39.630  -1.259  0.00  0.00    -0.205 NA
ATOM     13  C4  UNL     1      -5.794  40.019  -0.849  0.00  0.00    +0.202 A 
ATOM     14  N3  UNL     1      -6.583  39.174  -0.107  0.00  0.00    -0.202 NA
ATOM     15  N4  UNL     1      -2.941  37.818  -1.203  0.00  0.00    -0.269 N 
ATOM     16  C14 UNL     1      -3.025  36.589  -0.627  0.00  0.00    +0.182 A 
ATOM     17  N6  UNL     1      -4.211  36.390   0.003  0.00  0.00    -0.219 NA
ENDBRANCH   1  15
BRANCH   3  18
ATOM     18  C7  UNL     1      -2.169  41.600  -3.018  0.00  0.00    +0.090 C 
BRANCH  18  19
ATOM     19  S1  UNL     1      -1.916  42.267  -4.706  0.00  0.00    -0.138 S 
BRANCH  19  20
ATOM     20  C8  UNL     1      -3.126  43.628  -4.575  0.00  0.00    +0.060 C 
BRANCH  20  21
ATOM     21  C9  UNL     1      -2.477  44.948  -4.999  0.00  0.00    +0.042 C 
BRANCH  21  22
ATOM     22  C10 UNL     1      -2.447  45.983  -3.857  0.00  0.00    +0.195 C 
ATOM     23  N5  UNL     1      -2.691  47.334  -4.370  0.00  0.00    -0.121 NA
BRANCH  22  24
ATOM     24  C11 UNL     1      -1.108  45.935  -3.173  0.00  0.00    +0.382 C 
ATOM     25  O2  UNL     1      -0.252  46.835  -3.382  0.00  0.00    -0.244 OA
ATOM     26  O3  UNL     1      -0.798  44.876  -2.330  0.00  0.00    -0.244 OA
ENDBRANCH  22  24
ENDBRANCH  21  22
ENDBRANCH  20  21
ENDBRANCH  19  20
ENDBRANCH  18  19
ENDBRANCH   3  18
TORSDOF 7
ENDMDL
MODEL 4
REMARK VINA RESULT:      -6.5      5.338      6.692
REMARK  Name = ./threeLigTest/pdb/l2c1.pdb
REMARK  7 active torsions:
REMARK  status: ('A' for Active; 'I' for Inactive)
REMARK    1  A    between atoms: N4_8  and  C5_9
REMARK    2  A    between atoms: C6_11  and  C7_12
REMARK    3  A    between atoms: C7_12  and  S1_13
REMARK    4  A    between atoms: S1_13  and  C8_14
REMARK    5  A    between atoms: C8_14  and  C9_15
REMARK    6  A    between atoms: C9_15  and  C10_16
REMARK    7  A    between atoms: C10_16  and  C11_17
REMARK                            x       y       z     vdW  Elec       q    Type
REMARK                         _______ _______ _______ _____ _____    ______ ____
ROOT
ATOM      1  C5  UNL     1      -0.973  38.248  -1.770  0.00  0.00    +0.241 C 
ATOM      2  O1  UNL     1      -1.849  37.156  -1.920  0.00  0.00    -0.332 OA
ATOM      3  C6  UNL     1      -2.622  37.057  -0.742  0.00  0.00    +0.161 C 
ATOM      4  C12 UNL     1      -2.257  38.207   0.207  0.00  0.00    +0.214 C 
ATOM      5  O4  UNL     1      -1.403  37.727   1.217  0.00  0.00    -0.218 OA
ATOM      6  C13 UNL     1      -1.531  39.172  -0.703  0.00  0.00    +0.234 C 
ATOM      7  O5  UNL     1      -0.499  39.861  -0.046  0.00  0.00    -0.216 OA
ENDROOT
BRANCH   1  15
ATOM      8  N1  UNL     1       0.584  40.432  -7.109  0.00  0.00    -0.125 NA
ATOM      9  C1  UNL     1       0.714  39.561  -6.158  0.00  0.00    +0.206 A 
ATOM     10  C2  UNL     1      -0.094  39.608  -5.029  0.00  0.00    +0.154 A 
ATOM     11  C3  UNL     1       0.060  38.695  -4.043  0.00  0.00    +0.169 A 
ATOM     12  N2  UNL     1       0.983  37.705  -4.108  0.00  0.00    -0.205 NA
ATOM     13  C4  UNL     1       1.783  37.643  -5.215  0.00  0.00    +0.202 A 
ATOM     14  N3  UNL     1       1.651  38.563  -6.226  0.00  0.00    -0.202 NA
ATOM     15  N4  UNL     1      -0.814  38.942  -3.051  0.00  0.00    -0.269 N 
ATOM     16  C14 UNL     1      -1.497  40.035  -3.482  0.00  0.00    +0.182 A 
ATOM     17  N6  UNL     1      -1.076  40.466  -4.698  0.00  0.00    -0.219 NA
ENDBRANCH   1  15
BRANCH   3  18
ATOM     18  C7  UNL     1      -4.116  37.073  -1.103  0.00  0.00    +0.090 C 
BRANCH  18  19
ATOM     19  S1  UNL     1      -5.073  38.071   0.100  0.00  0.00    -0.138 S 
BRANCH  19  20
ATOM     20  C8  UNL     1      -5.150  39.592  -0.907  0.00  0.00    +0.060 C 
BRANCH  20  21
ATOM     21  C9  UNL     1      -6.563  40.178  -0.864  0.00  0.00    +0.042 C 
BRANCH  21  22
ATOM     22  C10 UNL     1      -7.136  40.230   0.566  0.00  0.00    +0.195 C 
ATOM     23  N5  UNL     1      -8.407  39.507   0.647  0.00  0.00    -0.121 NA
BRANCH  22  24
ATOM     24  C11 UNL     1      -7.343  41.664   0.970  0.00  0.00    +0.382 C 
ATOM     25  O2  UNL     1      -8.311  41.986   1.708  0.00  0.00    -0.244 OA
ATOM     26  O3  UNL     1      -6.481  42.648   0.501  0.00  0.00    -0.244 OA
ENDBRANCH  22  24
ENDBRANCH  21  22
ENDBRANCH  20  21
ENDBRANCH  19  20
ENDBRANCH  18  19
ENDBRANCH   3  18
TORSDOF 7
ENDMDL
MODEL 5
REMARK VINA RESULT:      -6.3      4.873      6.993
REMARK  Name = ./threeLigTest/pdb/l2c1.pdb
REMARK  7 active torsions:
REMARK  status: ('A' for Active; 'I' for Inactive)
REMARK    1  A    between atoms: N4_8  and  C5_9
REMARK    2  A    between atoms: C6_11  and  C7_12
REMARK    3  A    between atoms: C7_12  and  S1_13
REMARK    4  A    between atoms: S1_13  and  C8_14
REMARK    5  A    between atoms: C8_14  and  C9_15
REMARK    6  A    between atoms: C9_15  and  C10_16
REMARK    7  A    between atoms: C10_16  and  C11_17
REMARK                            x       y       z     vdW  Elec       q    Type
REMARK                         _______ _______ _______ _____ _____    ______ ____
ROOT
ATOM      1  C5  UNL     1      -0.757  38.049  -2.718  0.00  0.00    +0.241 C 
ATOM      2  O1  UNL     1      -1.867  37.201  -2.888  0.00  0.00    -0.332 OA
ATOM      3  C6  UNL     1      -2.283  36.772  -1.607  0.00  0.00    +0.161 C 
ATOM      4  C12 UNL     1      -1.413  37.445  -0.536  0.00  0.00    +0.214 C 
ATOM      5  O4  UNL     1      -0.448  36.531  -0.077  0.00  0.00    -0.218 OA
ATOM      6  C13 UNL     1      -0.767  38.581  -1.296  0.00  0.00    +0.234 C 
ATOM      7  O5  UNL     1       0.537  38.854  -0.853  0.00  0.00    -0.216 OA
ENDROOT
BRANCH   1  15
ATOM      8  N1  UNL     1      -1.657  42.964  -5.993  0.00  0.00    -0.125 NA
ATOM      9  C1  UNL     1      -1.786  42.297  -4.889  0.00  0.00    +0.206 A 
ATOM     10  C2  UNL     1      -1.243  41.026  -4.754  0.00  0.00    +0.154 A 
ATOM     11  C3  UNL     1      -1.394  40.342  -3.597  0.00  0.00    +0.169 A 
ATOM     12  N2  UNL     1      -2.057  40.853  -2.532  0.00  0.00    -0.205 NA
ATOM     13  C4  UNL     1      -2.593  42.105  -2.649  0.00  0.00    +0.202 A 
ATOM     14  N3  UNL     1      -2.461  42.817  -3.815  0.00  0.00    -0.202 NA
ATOM     15  N4  UNL     1      -0.803  39.137  -3.698  0.00  0.00    -0.269 N 
ATOM     16  C14 UNL     1      -0.293  39.129  -4.958  0.00  0.00    +0.182 A 
ATOM     17  N6  UNL     1      -0.548  40.280  -5.631  0.00  0.00    -0.219 NA
ENDBRANCH   1  15
BRANCH   3  18
ATOM     18  C7  UNL     1      -3.773  37.098  -1.415  0.00  0.00    +0.090 C 
BRANCH  18  19
ATOM     19  S1  UNL     1      -4.023  38.210   0.021  0.00  0.00    -0.138 S 
BRANCH  19  20
ATOM     20  C8  UNL     1      -4.926  39.514  -0.882  0.00  0.00    +0.060 C 
BRANCH  20  21
ATOM     21  C9  UNL     1      -6.364  39.608  -0.368  0.00  0.00    +0.042 C 
BRANCH  21  22
ATOM     22  C10 UNL     1      -6.812  41.063  -0.129  0.00  0.00    +0.195 C 
ATOM     23  N5  UNL     1      -5.684  41.893   0.303  0.00  0.00    -0.121 NA
BRANCH  22  24
ATOM     24  C11 UNL     1      -7.891  41.090   0.918  0.00  0.00    +0.382 C 
ATOM     25  O2  UNL     1      -8.378  40.015   1.359  0.00  0.00    -0.244 OA
ATOM     26  O3  UNL     1      -8.378  42.305   1.382  0.00  0.00    -0.244 OA
ENDBRANCH  22  24
ENDBRANCH  21  22
ENDBRANCH  20  21
ENDBRANCH  19  20
ENDBRANCH  18  19
ENDBRANCH   3  18
TORSDOF 7
ENDMDL
MODEL 6
REMARK VINA RESULT:      -6.1      4.935      6.659
REMARK  Name = ./threeLigTest/pdb/l2c1.pdb
REMARK  7 active torsions:
REMARK  status: ('A' for Active; 'I' for Inactive)
REMARK    1  A    between atoms: N4_8  and  C5_9
REMARK    2  A    between atoms: C6_11  and  C7_12
REMARK    3  A    between atoms: C7_12  and  S1_13
REMARK    4  A    between atoms: S1_13  and  C8_14
REMARK    5  A    between atoms: C8_14  and  C9_15
REMARK    6  A    between atoms: C9_15  and  C10_16
REMARK    7  A    between atoms: C10_16  and  C11_17
REMARK                            x       y       z     vdW  Elec       q    Type
REMARK                         _______ _______ _______ _____ _____    ______ ____
ROOT
ATOM      1  C5  UNL     1       0.179  37.709  -1.927  0.00  0.00    +0.241 C 
ATOM      2  O1  UNL     1      -1.204  37.725  -1.666  0.00  0.00    -0.332 OA
ATOM      3  C6  UNL     1      -1.390  38.182  -0.342  0.00  0.00    +0.161 C 
ATOM      4  C12 UNL     1      -0.028  38.543   0.268  0.00  0.00    +0.214 C 
ATOM      5  O4  UNL     1       0.392  37.506   1.122  0.00  0.00    -0.218 OA
ATOM      6  C13 UNL     1       0.867  38.642  -0.946  0.00  0.00    +0.234 C 
ATOM      7  O5  UNL     1       2.180  38.217  -0.686  0.00  0.00    -0.216 OA
ENDROOT
BRANCH   1  15
ATOM      8  N1  UNL     1       0.373  40.057  -7.417  0.00  0.00    -0.125 NA
ATOM      9  C1  UNL     1      -0.057  40.065  -6.194  0.00  0.00    +0.206 A 
ATOM     10  C2  UNL     1       0.366  39.108  -5.281  0.00  0.00    +0.154 A 
ATOM     11  C3  UNL     1      -0.099  39.128  -4.010  0.00  0.00    +0.169 A 
ATOM     12  N2  UNL     1      -0.973  40.066  -3.572  0.00  0.00    -0.205 NA
ATOM     13  C4  UNL     1      -1.395  41.016  -4.459  0.00  0.00    +0.202 A 
ATOM     14  N3  UNL     1      -0.944  41.014  -5.756  0.00  0.00    -0.202 NA
ATOM     15  N4  UNL     1       0.432  38.108  -3.314  0.00  0.00    -0.269 N 
ATOM     16  C14 UNL     1       1.233  37.479  -4.214  0.00  0.00    +0.182 A 
ATOM     17  N6  UNL     1       1.212  38.075  -5.434  0.00  0.00    -0.219 NA
ENDBRANCH   1  15
BRANCH   3  18
ATOM     18  C7  UNL     1      -2.348  39.383  -0.341  0.00  0.00    +0.090 C 
BRANCH  18  19
ATOM     19  S1  UNL     1      -3.993  38.913  -0.999  0.00  0.00    -0.138 S 
BRANCH  19  20
ATOM     20  C8  UNL     1      -4.841  40.472  -0.570  0.00  0.00    +0.060 C 
BRANCH  20  21
ATOM     21  C9  UNL     1      -6.352  40.314  -0.756  0.00  0.00    +0.042 C 
BRANCH  21  22
ATOM     22  C10 UNL     1      -7.113  40.300   0.585  0.00  0.00    +0.195 C 
ATOM     23  N5  UNL     1      -8.283  39.421   0.514  0.00  0.00    -0.121 NA
BRANCH  22  24
ATOM     24  C11 UNL     1      -7.550  41.698   0.926  0.00  0.00    +0.382 C 
ATOM     25  O2  UNL     1      -8.526  41.891   1.698  0.00  0.00    -0.244 OA
ATOM     26  O3  UNL     1      -6.895  42.787   0.363  0.00  0.00    -0.244 OA
ENDBRANCH  22  24
ENDBRANCH  21  22
ENDBRANCH  20  21
ENDBRANCH  19  20
ENDBRANCH  18  19
ENDBRANCH   3  18
TORSDOF 7
ENDMDL
MODEL 7
REMARK VINA RESULT:      -6.0      3.221      5.022
REMARK  Name = ./threeLigTest/pdb/l2c1.pdb
REMARK  7 active torsions:
REMARK  status: ('A' for Active; 'I' for Inactive)
REMARK    1  A    between atoms: N4_8  and  C5_9
REMARK    2  A    between atoms: C6_11  and  C7_12
REMARK    3  A    between atoms: C7_12  and  S1_13
REMARK    4  A    between atoms: S1_13  and  C8_14
REMARK    5  A    between atoms: C8_14  and  C9_15
REMARK    6  A    between atoms: C9_15  and  C10_16
REMARK    7  A    between atoms: C10_16  and  C11_17
REMARK                            x       y       z     vdW  Elec       q    Type
REMARK                         _______ _______ _______ _____ _____    ______ ____
ROOT
ATOM      1  C5  UNL     1       0.265  37.496  -2.313  0.00  0.00    +0.241 C 
ATOM      2  O1  UNL     1      -1.101  37.166  -2.232  0.00  0.00    -0.332 OA
ATOM      3  C6  UNL     1      -1.564  37.554  -0.954  0.00  0.00    +0.161 C 
ATOM      4  C12 UNL     1      -0.424  38.237  -0.185  0.00  0.00    +0.214 C 
ATOM      5  O4  UNL     1       0.124  37.331   0.742  0.00  0.00    -0.218 OA
ATOM      6  C13 UNL     1       0.568  38.563  -1.277  0.00  0.00    +0.234 C 
ATOM      7  O5  UNL     1       1.900  38.475  -0.840  0.00  0.00    -0.216 OA
ENDROOT
BRANCH   1  15
ATOM      8  N1  UNL     1       0.699  40.028  -7.707  0.00  0.00    -0.125 NA
ATOM      9  C1  UNL     1       0.183  39.970  -6.519  0.00  0.00    +0.206 A 
ATOM     10  C2  UNL     1       0.601  39.012  -5.604  0.00  0.00    +0.154 A 
ATOM     11  C3  UNL     1       0.046  38.962  -4.371  0.00  0.00    +0.169 A 
ATOM     12  N2  UNL     1      -0.915  39.829  -3.972  0.00  0.00    -0.205 NA
ATOM     13  C4  UNL     1      -1.333  40.780  -4.860  0.00  0.00    +0.202 A 
ATOM     14  N3  UNL     1      -0.792  40.847  -6.120  0.00  0.00    -0.202 NA
ATOM     15  N4  UNL     1       0.590  37.954  -3.666  0.00  0.00    -0.269 N 
ATOM     16  C14 UNL     1       1.492  37.406  -4.523  0.00  0.00    +0.182 A 
ATOM     17  N6  UNL     1       1.520  38.038  -5.724  0.00  0.00    -0.219 NA
ENDBRANCH   1  15
BRANCH   3  18
ATOM     18  C7  UNL     1      -2.780  38.480  -1.106  0.00  0.00    +0.090 C 
BRANCH  18  19
ATOM     19  S1  UNL     1      -2.420  40.153  -0.450  0.00  0.00    -0.138 S 
BRANCH  19  20
ATOM     20  C8  UNL     1      -3.279  41.082  -1.766  0.00  0.00    +0.060 C 
BRANCH  20  21
ATOM     21  C9  UNL     1      -3.188  42.585  -1.491  0.00  0.00    +0.042 C 
BRANCH  21  22
ATOM     22  C10 UNL     1      -2.069  43.266  -2.303  0.00  0.00    +0.195 C 
ATOM     23  N5  UNL     1      -1.377  44.274  -1.496  0.00  0.00    -0.121 NA
BRANCH  22  24
ATOM     24  C11 UNL     1      -2.661  43.914  -3.525  0.00  0.00    +0.382 C 
ATOM     25  O2  UNL     1      -2.061  44.862  -4.098  0.00  0.00    -0.244 OA
ATOM     26  O3  UNL     1      -3.892  43.489  -4.008  0.00  0.00    -0.244 OA
ENDBRANCH  22  24
ENDBRANCH  21  22
ENDBRANCH  20  21
ENDBRANCH  19  20
ENDBRANCH  18  19
ENDBRANCH   3  18
TORSDOF 7
ENDMDL
MODEL 8
REMARK VINA RESULT:      -5.6      4.403      6.369
REMARK  Name = ./threeLigTest/pdb/l2c1.pdb
REMARK  7 active torsions:
REMARK  status: ('A' for Active; 'I' for Inactive)
REMARK    1  A    between atoms: N4_8  and  C5_9
REMARK    2  A    between atoms: C6_11  and  C7_12
REMARK    3  A    between atoms: C7_12  and  S1_13
REMARK    4  A    between atoms: S1_13  and  C8_14
REMARK    5  A    between atoms: C8_14  and  C9_15
REMARK    6  A    between atoms: C9_15  and  C10_16
REMARK    7  A    between atoms: C10_16  and  C11_17
REMARK                            x       y       z     vdW  Elec       q    Type
REMARK                         _______ _______ _______ _____ _____    ______ ____
ROOT
ATOM      1  C5  UNL     1       0.105  36.329  -2.076  0.00  0.00    +0.241 C 
ATOM      2  O1  UNL     1      -1.175  35.767  -2.240  0.00  0.00    -0.332 OA
ATOM      3  C6  UNL     1      -1.867  35.902  -1.015  0.00  0.00    +0.161 C 
ATOM      4  C12 UNL     1      -0.985  36.659  -0.012  0.00  0.00    +0.214 C 
ATOM      5  O4  UNL     1      -0.407  35.744   0.886  0.00  0.00    -0.218 OA
ATOM      6  C13 UNL     1       0.066  37.286  -0.899  0.00  0.00    +0.234 C 
ATOM      7  O5  UNL     1       1.322  37.367  -0.275  0.00  0.00    -0.216 OA
ENDROOT
BRANCH   1  15
ATOM      8  N1  UNL     1       0.903  39.762  -6.899  0.00  0.00    -0.125 NA
ATOM      9  C1  UNL     1       0.322  39.513  -5.768  0.00  0.00    +0.206 A 
ATOM     10  C2  UNL     1       0.662  38.393  -5.021  0.00  0.00    +0.154 A 
ATOM     11  C3  UNL     1       0.039  38.144  -3.845  0.00  0.00    +0.169 A 
ATOM     12  N2  UNL     1      -0.918  38.962  -3.344  0.00  0.00    -0.205 NA
ATOM     13  C4  UNL     1      -1.260  40.071  -4.066  0.00  0.00    +0.202 A 
ATOM     14  N3  UNL     1      -0.649  40.341  -5.266  0.00  0.00    -0.202 NA
ATOM     15  N4  UNL     1       0.516  37.008  -3.307  0.00  0.00    -0.269 N 
ATOM     16  C14 UNL     1       1.447  36.588  -4.204  0.00  0.00    +0.182 A 
ATOM     17  N6  UNL     1       1.559  37.422  -5.269  0.00  0.00    -0.219 NA
ENDBRANCH   1  15
BRANCH   3  18
ATOM     18  C7  UNL     1      -3.202  36.623  -1.254  0.00  0.00    +0.090 C 
BRANCH  18  19
ATOM     19  S1  UNL     1      -3.368  38.082  -0.157  0.00  0.00    -0.138 S 
BRANCH  19  20
ATOM     20  C8  UNL     1      -3.904  39.254  -1.449  0.00  0.00    +0.060 C 
BRANCH  20  21
ATOM     21  C9  UNL     1      -5.023  40.149  -0.912  0.00  0.00    +0.042 C 
BRANCH  21  22
ATOM     22  C10 UNL     1      -4.503  41.518  -0.429  0.00  0.00    +0.195 C 
ATOM     23  N5  UNL     1      -5.605  42.360   0.042  0.00  0.00    -0.121 NA
BRANCH  22  24
ATOM     24  C11 UNL     1      -3.786  42.207  -1.558  0.00  0.00    +0.382 C 
ATOM     25  O2  UNL     1      -4.418  42.581  -2.582  0.00  0.00    -0.244 OA
ATOM     26  O3  UNL     1      -2.413  42.406  -1.489  0.00  0.00    -0.244 OA
ENDBRANCH  22  24
ENDBRANCH  21  22
ENDBRANCH  20  21
ENDBRANCH  19  20
ENDBRANCH  18  19
ENDBRANCH   3  18
TORSDOF 7
ENDMDL
MODEL 9
REMARK VINA RESULT:      -5.2      3.724      5.421
REMARK  Name = ./threeLigTest/pdb/l2c1.pdb
REMARK  7 active torsions:
REMARK  status: ('A' for Active; 'I' for Inactive)
REMARK    1  A    between atoms: N4_8  and  C5_9
REMARK    2  A    between atoms: C6_11  and  C7_12
REMARK    3  A    between atoms: C7_12  and  S1_13
REMARK    4  A    between atoms: S1_13  and  C8_14
REMARK    5  A    between atoms: C8_14  and  C9_15
REMARK    6  A    between atoms: C9_15  and  C10_16
REMARK    7  A    between atoms: C10_16  and  C11_17
REMARK                            x       y       z     vdW  Elec       q    Type
REMARK                         _______ _______ _______ _____ _____    ______ ____
ROOT
ATOM      1  C5  UNL     1      -0.599  37.560   0.430  0.00  0.00    +0.241 C 
ATOM      2  O1  UNL     1      -1.891  37.535  -0.128  0.00  0.00    -0.332 OA
ATOM      3  C6  UNL     1      -2.436  38.834  -0.018  0.00  0.00    +0.161 C 
ATOM      4  C12 UNL     1      -1.392  39.774   0.601  0.00  0.00    +0.214 C 
ATOM      5  O4  UNL     1      -1.693  39.977   1.960  0.00  0.00    -0.218 OA
ATOM      6  C13 UNL     1      -0.106  38.996   0.441  0.00  0.00    +0.234 C 
ATOM      7  O5  UNL     1       0.791  39.211   1.500  0.00  0.00    -0.216 OA
ENDROOT
BRANCH   1  15
ATOM      8  N1  UNL     1       2.542  34.459  -3.596  0.00  0.00    -0.125 NA
ATOM      9  C1  UNL     1       1.709  35.404  -3.290  0.00  0.00    +0.206 A 
ATOM     10  C2  UNL     1       1.365  35.654  -1.968  0.00  0.00    +0.154 A 
ATOM     11  C3  UNL     1       0.488  36.640  -1.669  0.00  0.00    +0.169 A 
ATOM     12  N2  UNL     1      -0.078  37.421  -2.619  0.00  0.00    -0.205 NA
ATOM     13  C4  UNL     1       0.254  37.190  -3.925  0.00  0.00    +0.202 A 
ATOM     14  N3  UNL     1       1.136  36.190  -4.256  0.00  0.00    -0.202 NA
ATOM     15  N4  UNL     1       0.296  36.691  -0.338  0.00  0.00    -0.269 N 
ATOM     16  C14 UNL     1       1.091  35.701   0.145  0.00  0.00    +0.182 A 
ATOM     17  N6  UNL     1       1.762  35.046  -0.837  0.00  0.00    -0.219 NA
ENDBRANCH   1  15
BRANCH   3  18
ATOM     18  C7  UNL     1      -2.889  39.322  -1.403  0.00  0.00    +0.090 C 
BRANCH  18  19
ATOM     19  S1  UNL     1      -4.453  40.271  -1.288  0.00  0.00    -0.138 S 
BRANCH  19  20
ATOM     20  C8  UNL     1      -3.686  41.925  -1.197  0.00  0.00    +0.060 C 
BRANCH  20  21
ATOM     21  C9  UNL     1      -3.978  42.708  -2.479  0.00  0.00    +0.042 C 
BRANCH  21  22
ATOM     22  C10 UNL     1      -2.694  43.220  -3.162  0.00  0.00    +0.195 C 
ATOM     23  N5  UNL     1      -1.637  42.206  -3.115  0.00  0.00    -0.121 NA
BRANCH  22  24
ATOM     24  C11 UNL     1      -2.225  44.472  -2.473  0.00  0.00    +0.382 C 
ATOM     25  O2  UNL     1      -2.790  45.575  -2.701  0.00  0.00    -0.244 OA
ATOM     26  O3  UNL     1      -1.143  44.422  -1.604  0.00  0.00    -0.244 OA
ENDBRANCH  22  24
ENDBRANCH  21  22
ENDBRANCH  20  21
ENDBRANCH  19  20
ENDBRANCH  18  19
ENDBRANCH   3  18
TORSDOF 7
ENDMDL
