MODEL 1
REMARK VINA RESULT:      -8.6      0.000      0.000
REMARK  Name = ./threeLigTest/pdb/l2c3.pdb
REMARK  7 active torsions:
REMARK  status: ('A' for Active; 'I' for Inactive)
REMARK    1  A    between atoms: N5_10  and  C6_11
REMARK    2  A    between atoms: C7_13  and  C8_14
REMARK    3  A    between atoms: C8_14  and  S1_15
REMARK    4  A    between atoms: S1_15  and  C9_16
REMARK    5  A    between atoms: C9_16  and  C10_17
REMARK    6  A    between atoms: C10_17  and  C11_18
REMARK    7  A    between atoms: C11_18  and  C12_20
REMARK                            x       y       z     vdW  Elec       q    Type
REMARK                         _______ _______ _______ _____ _____    ______ ____
ROOT
ATOM      1  C6  UNL     1      -3.882  42.300  -0.846  0.00  0.00    +0.241 C 
ATOM      2  O1  UNL     1      -4.443  43.296  -1.674  0.00  0.00    -0.332 OA
ATOM      3  C7  UNL     1      -3.440  43.757  -2.556  0.00  0.00    +0.161 C 
ATOM      4  C13 UNL     1      -2.107  43.085  -2.199  0.00  0.00    +0.214 C 
ATOM      5  O4  UNL     1      -1.297  43.939  -1.422  0.00  0.00    -0.218 OA
ATOM      6  C14 UNL     1      -2.544  41.862  -1.431  0.00  0.00    +0.234 C 
ATOM      7  O5  UNL     1      -1.624  41.518  -0.429  0.00  0.00    -0.216 OA
ENDROOT
BRANCH   1  17
ATOM      8  N1  UNL     1      -8.160  38.155   0.417  0.00  0.00    -0.105 NA
ATOM      9  C1  UNL     1      -7.642  39.487   0.458  0.00  0.00    +0.192 A 
ATOM     10  N2  UNL     1      -8.321  40.486   1.104  0.00  0.00    -0.204 NA
ATOM     11  C2  UNL     1      -7.828  41.766   1.150  0.00  0.00    +0.202 A 
ATOM     12  N3  UNL     1      -6.640  42.076   0.548  0.00  0.00    -0.205 NA
ATOM     13  C3  UNL     1      -5.970  41.085  -0.094  0.00  0.00    +0.169 A 
ATOM     14  C4  UNL     1      -6.434  39.815  -0.150  0.00  0.00    +0.152 A 
ATOM     15  N4  UNL     1      -5.574  39.024  -0.818  0.00  0.00    -0.219 NA
ATOM     16  C5  UNL     1      -4.577  39.886  -1.159  0.00  0.00    +0.182 A 
ATOM     17  N5  UNL     1      -4.797  41.161  -0.740  0.00  0.00    -0.269 N 
ENDBRANCH   1  17
BRANCH   3  18
ATOM     18  C8  UNL     1      -3.853  43.450  -4.005  0.00  0.00    +0.090 C 
BRANCH  18  19
ATOM     19  S1  UNL     1      -2.398  43.454  -5.119  0.00  0.00    -0.138 S 
BRANCH  19  20
ATOM     20  C9  UNL     1      -2.751  45.049  -5.942  0.00  0.00    +0.060 C 
BRANCH  20  21
ATOM     21  C10 UNL     1      -2.795  46.181  -4.906  0.00  0.00    +0.042 C 
BRANCH  21  22
ATOM     22  C11 UNL     1      -3.576  47.422  -5.385  0.00  0.00    +0.195 C 
ATOM     23  N6  UNL     1      -3.502  47.555  -6.842  0.00  0.00    -0.121 NA
BRANCH  22  24
ATOM     24  C12 UNL     1      -3.069  48.673  -4.717  0.00  0.00    +0.382 C 
ATOM     25  O2  UNL     1      -3.786  49.709  -4.692  0.00  0.00    -0.244 OA
ATOM     26  O3  UNL     1      -1.836  48.679  -4.074  0.00  0.00    -0.244 OA
ENDBRANCH  22  24
ENDBRANCH  21  22
ENDBRANCH  20  21
ENDBRANCH  19  20
ENDBRANCH  18  19
ENDBRANCH   3  18
TORSDOF 7
ENDMDL
MODEL 2
REMARK VINA RESULT:      -8.5      2.774      4.207
REMARK  Name = ./threeLigTest/pdb/l2c3.pdb
REMARK  7 active torsions:
REMARK  status: ('A' for Active; 'I' for Inactive)
REMARK    1  A    between atoms: N5_10  and  C6_11
REMARK    2  A    between atoms: C7_13  and  C8_14
REMARK    3  A    between atoms: C8_14  and  S1_15
REMARK    4  A    between atoms: S1_15  and  C9_16
REMARK    5  A    between atoms: C9_16  and  C10_17
REMARK    6  A    between atoms: C10_17  and  C11_18
REMARK    7  A    between atoms: C11_18  and  C12_20
REMARK                            x       y       z     vdW  Elec       q    Type
REMARK                         _______ _______ _______ _____ _____    ______ ____
ROOT
ATOM      1  C6  UNL     1      -3.805  42.473  -1.026  0.00  0.00    +0.241 C 
ATOM      2  O1  UNL     1      -4.264  43.363  -2.021  0.00  0.00    -0.332 OA
ATOM      3  C7  UNL     1      -3.165  43.730  -2.830  0.00  0.00    +0.161 C 
ATOM      4  C13 UNL     1      -1.884  43.115  -2.250  0.00  0.00    +0.214 C 
ATOM      5  O4  UNL     1      -1.164  44.059  -1.488  0.00  0.00    -0.218 OA
ATOM      6  C14 UNL     1      -2.411  41.984  -1.402  0.00  0.00    +0.234 C 
ATOM      7  O5  UNL     1      -1.612  41.763  -0.270  0.00  0.00    -0.216 OA
ENDROOT
BRANCH   1  17
ATOM      8  N1  UNL     1      -8.102  38.384   0.348  0.00  0.00    -0.105 NA
ATOM      9  C1  UNL     1      -7.567  39.709   0.374  0.00  0.00    +0.192 A 
ATOM     10  N2  UNL     1      -8.218  40.718   1.032  0.00  0.00    -0.204 NA
ATOM     11  C2  UNL     1      -7.709  41.992   1.063  0.00  0.00    +0.202 A 
ATOM     12  N3  UNL     1      -6.532  42.286   0.432  0.00  0.00    -0.205 NA
ATOM     13  C3  UNL     1      -5.889  41.285  -0.222  0.00  0.00    +0.169 A 
ATOM     14  C4  UNL     1      -6.370  40.021  -0.264  0.00  0.00    +0.152 A 
ATOM     15  N4  UNL     1      -5.535  39.218  -0.950  0.00  0.00    -0.219 NA
ATOM     16  C5  UNL     1      -4.536  40.067  -1.316  0.00  0.00    +0.182 A 
ATOM     17  N5  UNL     1      -4.731  41.346  -0.895  0.00  0.00    -0.269 N 
ENDBRANCH   1  17
BRANCH   3  18
ATOM     18  C8  UNL     1      -3.412  43.257  -4.272  0.00  0.00    +0.090 C 
BRANCH  18  19
ATOM     19  S1  UNL     1      -2.536  44.326  -5.474  0.00  0.00    -0.138 S 
BRANCH  19  20
ATOM     20  C9  UNL     1      -1.727  42.983  -6.419  0.00  0.00    +0.060 C 
BRANCH  20  21
ATOM     21  C10 UNL     1      -1.560  41.740  -5.534  0.00  0.00    +0.042 C 
BRANCH  21  22
ATOM     22  C11 UNL     1      -0.486  40.759  -6.049  0.00  0.00    +0.195 C 
ATOM     23  N6  UNL     1      -0.795  40.316  -7.410  0.00  0.00    -0.121 NA
BRANCH  22  24
ATOM     24  C12 UNL     1      -0.348  39.575  -5.128  0.00  0.00    +0.382 C 
ATOM     25  O2  UNL     1       0.559  38.724  -5.329  0.00  0.00    -0.244 OA
ATOM     26  O3  UNL     1      -1.178  39.442  -4.021  0.00  0.00    -0.244 OA
ENDBRANCH  22  24
ENDBRANCH  21  22
ENDBRANCH  20  21
ENDBRANCH  19  20
ENDBRANCH  18  19
ENDBRANCH   3  18
TORSDOF 7
ENDMDL
MODEL 3
REMARK VINA RESULT:      -7.0      2.609      3.777
REMARK  Name = ./threeLigTest/pdb/l2c3.pdb
REMARK  7 active torsions:
REMARK  status: ('A' for Active; 'I' for Inactive)
REMARK    1  A    between atoms: N5_10  and  C6_11
REMARK    2  A    between atoms: C7_13  and  C8_14
REMARK    3  A    between atoms: C8_14  and  S1_15
REMARK    4  A    between atoms: S1_15  and  C9_16
REMARK    5  A    between atoms: C9_16  and  C10_17
REMARK    6  A    between atoms: C10_17  and  C11_18
REMARK    7  A    between atoms: C11_18  and  C12_20
REMARK                            x       y       z     vdW  Elec       q    Type
REMARK                         _______ _______ _______ _____ _____    ______ ____
ROOT
ATOM      1  C6  UNL     1      -1.880  38.306  -1.787  0.00  0.00    +0.241 C 
ATOM      2  O1  UNL     1      -1.642  39.646  -1.412  0.00  0.00    -0.332 OA
ATOM      3  C7  UNL     1      -1.274  40.373  -2.568  0.00  0.00    +0.161 C 
ATOM      4  C13 UNL     1      -1.165  39.407  -3.756  0.00  0.00    +0.214 C 
ATOM      5  O4  UNL     1       0.177  39.052  -4.003  0.00  0.00    -0.218 OA
ATOM      6  C14 UNL     1      -1.991  38.228  -3.305  0.00  0.00    +0.234 C 
ATOM      7  O5  UNL     1      -1.487  37.016  -3.804  0.00  0.00    -0.216 OA
ENDROOT
BRANCH   1  17
ATOM      8  N1  UNL     1      -7.242  37.363   0.938  0.00  0.00    -0.105 NA
ATOM      9  C1  UNL     1      -6.331  38.174   0.195  0.00  0.00    +0.192 A 
ATOM     10  N2  UNL     1      -6.657  39.456  -0.159  0.00  0.00    -0.204 NA
ATOM     11  C2  UNL     1      -5.785  40.242  -0.871  0.00  0.00    +0.202 A 
ATOM     12  N3  UNL     1      -4.563  39.759  -1.247  0.00  0.00    -0.205 NA
ATOM     13  C3  UNL     1      -4.242  38.487  -0.898  0.00  0.00    +0.169 A 
ATOM     14  C4  UNL     1      -5.084  37.694  -0.194  0.00  0.00    +0.152 A 
ATOM     15  N4  UNL     1      -4.519  36.496   0.044  0.00  0.00    -0.219 NA
ATOM     16  C5  UNL     1      -3.303  36.613  -0.555  0.00  0.00    +0.182 A 
ATOM     17  N5  UNL     1      -3.107  37.819  -1.153  0.00  0.00    -0.269 N 
ENDBRANCH   1  17
BRANCH   3  18
ATOM     18  C8  UNL     1      -2.315  41.472  -2.832  0.00  0.00    +0.090 C 
BRANCH  18  19
ATOM     19  S1  UNL     1      -2.047  42.253  -4.468  0.00  0.00    -0.138 S 
BRANCH  19  20
ATOM     20  C9  UNL     1      -3.414  43.465  -4.364  0.00  0.00    +0.060 C 
BRANCH  20  21
ATOM     21  C10 UNL     1      -3.449  44.104  -2.969  0.00  0.00    +0.042 C 
BRANCH  21  22
ATOM     22  C11 UNL     1      -2.620  45.401  -2.866  0.00  0.00    +0.195 C 
ATOM     23  N6  UNL     1      -2.422  46.000  -4.188  0.00  0.00    -0.121 NA
BRANCH  22  24
ATOM     24  C12 UNL     1      -1.293  45.144  -2.201  0.00  0.00    +0.382 C 
ATOM     25  O2  UNL     1      -1.203  44.283  -1.285  0.00  0.00    -0.244 OA
ATOM     26  O3  UNL     1      -0.149  45.810  -2.629  0.00  0.00    -0.244 OA
ENDBRANCH  22  24
ENDBRANCH  21  22
ENDBRANCH  20  21
ENDBRANCH  19  20
ENDBRANCH  18  19
ENDBRANCH   3  18
TORSDOF 7
ENDMDL
MODEL 4
REMARK VINA RESULT:      -6.4      3.895      5.597
REMARK  Name = ./threeLigTest/pdb/l2c3.pdb
REMARK  7 active torsions:
REMARK  status: ('A' for Active; 'I' for Inactive)
REMARK    1  A    between atoms: N5_10  and  C6_11
REMARK    2  A    between atoms: C7_13  and  C8_14
REMARK    3  A    between atoms: C8_14  and  S1_15
REMARK    4  A    between atoms: S1_15  and  C9_16
REMARK    5  A    between atoms: C9_16  and  C10_17
REMARK    6  A    between atoms: C10_17  and  C11_18
REMARK    7  A    between atoms: C11_18  and  C12_20
REMARK                            x       y       z     vdW  Elec       q    Type
REMARK                         _______ _______ _______ _____ _____    ______ ____
ROOT
ATOM      1  C6  UNL     1      -2.311  40.372  -2.355  0.00  0.00    +0.241 C 
ATOM      2  O1  UNL     1      -2.884  41.190  -3.353  0.00  0.00    -0.332 OA
ATOM      3  C7  UNL     1      -3.227  42.430  -2.769  0.00  0.00    +0.161 C 
ATOM      4  C13 UNL     1      -2.953  42.369  -1.260  0.00  0.00    +0.214 C 
ATOM      5  O4  UNL     1      -4.137  42.121  -0.536  0.00  0.00    -0.218 OA
ATOM      6  C14 UNL     1      -1.967  41.233  -1.145  0.00  0.00    +0.234 C 
ATOM      7  O5  UNL     1      -2.122  40.527   0.059  0.00  0.00    -0.216 OA
ENDROOT
BRANCH   1  17
ATOM      8  N1  UNL     1       2.247  37.867  -5.521  0.00  0.00    -0.105 NA
ATOM      9  C1  UNL     1       1.131  38.753  -5.401  0.00  0.00    +0.192 A 
ATOM     10  N2  UNL     1       0.701  39.492  -6.471  0.00  0.00    -0.204 NA
ATOM     11  C2  UNL     1      -0.371  40.342  -6.363  0.00  0.00    +0.202 A 
ATOM     12  N3  UNL     1      -1.039  40.473  -5.178  0.00  0.00    -0.205 NA
ATOM     13  C3  UNL     1      -0.609  39.742  -4.117  0.00  0.00    +0.169 A 
ATOM     14  C4  UNL     1       0.444  38.895  -4.199  0.00  0.00    +0.152 A 
ATOM     15  N4  UNL     1       0.647  38.275  -3.022  0.00  0.00    -0.219 NA
ATOM     16  C5  UNL     1      -0.334  38.796  -2.236  0.00  0.00    +0.182 A 
ATOM     17  N5  UNL     1      -1.113  39.709  -2.875  0.00  0.00    -0.269 N 
ENDBRANCH   1  17
BRANCH   3  18
ATOM     18  C8  UNL     1      -2.418  43.552  -3.441  0.00  0.00    +0.090 C 
BRANCH  18  19
ATOM     19  S1  UNL     1      -2.839  43.691  -5.219  0.00  0.00    -0.138 S 
BRANCH  19  20
ATOM     20  C9  UNL     1      -2.321  45.433  -5.435  0.00  0.00    +0.060 C 
BRANCH  20  21
ATOM     21  C10 UNL     1      -3.211  46.358  -4.593  0.00  0.00    +0.042 C 
BRANCH  21  22
ATOM     22  C11 UNL     1      -3.522  47.703  -5.280  0.00  0.00    +0.195 C 
ATOM     23  N6  UNL     1      -3.534  47.554  -6.737  0.00  0.00    -0.121 NA
BRANCH  22  24
ATOM     24  C12 UNL     1      -2.535  48.764  -4.868  0.00  0.00    +0.382 C 
ATOM     25  O2  UNL     1      -2.627  49.928  -5.342  0.00  0.00    -0.244 OA
ATOM     26  O3  UNL     1      -1.556  48.485  -3.921  0.00  0.00    -0.244 OA
ENDBRANCH  22  24
ENDBRANCH  21  22
ENDBRANCH  20  21
ENDBRANCH  19  20
ENDBRANCH  18  19
ENDBRANCH   3  18
TORSDOF 7
ENDMDL
MODEL 5
REMARK VINA RESULT:      -5.9      4.068      5.530
REMARK  Name = ./threeLigTest/pdb/l2c3.pdb
REMARK  7 active torsions:
REMARK  status: ('A' for Active; 'I' for Inactive)
REMARK    1  A    between atoms: N5_10  and  C6_11
REMARK    2  A    between atoms: C7_13  and  C8_14
REMARK    3  A    between atoms: C8_14  and  S1_15
REMARK    4  A    between atoms: S1_15  and  C9_16
REMARK    5  A    between atoms: C9_16  and  C10_17
REMARK    6  A    between atoms: C10_17  and  C11_18
REMARK    7  A    between atoms: C11_18  and  C12_20
REMARK                            x       y       z     vdW  Elec       q    Type
REMARK                         _______ _______ _______ _____ _____    ______ ____
ROOT
ATOM      1  C6  UNL     1      -2.163  40.000  -2.365  0.00  0.00    +0.241 C 
ATOM      2  O1  UNL     1      -2.648  40.921  -3.319  0.00  0.00    -0.332 OA
ATOM      3  C7  UNL     1      -2.828  42.169  -2.680  0.00  0.00    +0.161 C 
ATOM      4  C13 UNL     1      -2.540  42.014  -1.181  0.00  0.00    +0.214 C 
ATOM      5  O4  UNL     1      -3.734  41.881  -0.443  0.00  0.00    -0.218 OA
ATOM      6  C14 UNL     1      -1.698  40.763  -1.130  0.00  0.00    +0.234 C 
ATOM      7  O5  UNL     1      -1.918  40.033   0.049  0.00  0.00    -0.216 OA
ENDROOT
BRANCH   1  17
ATOM      8  N1  UNL     1       2.395  36.212  -3.759  0.00  0.00    -0.105 NA
ATOM      9  C1  UNL     1       1.247  36.575  -2.989  0.00  0.00    +0.192 A 
ATOM     10  N2  UNL     1       0.811  35.783  -1.960  0.00  0.00    -0.204 NA
ATOM     11  C2  UNL     1      -0.289  36.127  -1.214  0.00  0.00    +0.202 A 
ATOM     12  N3  UNL     1      -0.979  37.276  -1.483  0.00  0.00    -0.205 NA
ATOM     13  C3  UNL     1      -0.547  38.059  -2.505  0.00  0.00    +0.169 A 
ATOM     14  C4  UNL     1       0.536  37.742  -3.252  0.00  0.00    +0.152 A 
ATOM     15  N4  UNL     1       0.768  38.691  -4.178  0.00  0.00    -0.219 NA
ATOM     16  C5  UNL     1      -0.231  39.585  -3.947  0.00  0.00    +0.182 A 
ATOM     17  N5  UNL     1      -1.063  39.219  -2.935  0.00  0.00    -0.269 N 
ENDBRANCH   1  17
BRANCH   3  18
ATOM     18  C8  UNL     1      -1.900  43.212  -3.325  0.00  0.00    +0.090 C 
BRANCH  18  19
ATOM     19  S1  UNL     1      -1.762  44.707  -2.276  0.00  0.00    -0.138 S 
BRANCH  19  20
ATOM     20  C9  UNL     1      -1.226  45.857  -3.596  0.00  0.00    +0.060 C 
BRANCH  20  21
ATOM     21  C10 UNL     1      -2.290  46.941  -3.817  0.00  0.00    +0.042 C 
BRANCH  21  22
ATOM     22  C11 UNL     1      -3.288  46.600  -4.944  0.00  0.00    +0.195 C 
ATOM     23  N6  UNL     1      -2.736  45.580  -5.839  0.00  0.00    -0.121 NA
BRANCH  22  24
ATOM     24  C12 UNL     1      -3.668  47.833  -5.722  0.00  0.00    +0.382 C 
ATOM     25  O2  UNL     1      -4.882  48.143  -5.856  0.00  0.00    -0.244 OA
ATOM     26  O3  UNL     1      -2.686  48.666  -6.246  0.00  0.00    -0.244 OA
ENDBRANCH  22  24
ENDBRANCH  21  22
ENDBRANCH  20  21
ENDBRANCH  19  20
ENDBRANCH  18  19
ENDBRANCH   3  18
TORSDOF 7
ENDMDL
