MODEL 1
REMARK VINA RESULT:      -7.7      0.000      0.000
REMARK  Name = ./threeLigTest/pdb/l2c0.pdb
REMARK  7 active torsions:
REMARK  status: ('A' for Active; 'I' for Inactive)
REMARK    1  A    between atoms: N5_10  and  C6_11
REMARK    2  A    between atoms: C7_13  and  C8_14
REMARK    3  A    between atoms: C8_14  and  S1_15
REMARK    4  A    between atoms: S1_15  and  C9_16
REMARK    5  A    between atoms: C9_16  and  C10_17
REMARK    6  A    between atoms: C10_17  and  C11_18
REMARK    7  A    between atoms: C11_18  and  C12_20
REMARK                            x       y       z     vdW  Elec       q    Type
REMARK                         _______ _______ _______ _____ _____    ______ ____
ROOT
ATOM      1  C6  UNL     1      -2.776  40.190  -1.572  0.00  0.00    +0.241 C 
ATOM      2  O1  UNL     1      -2.730  41.454  -2.186  0.00  0.00    -0.332 OA
ATOM      3  C7  UNL     1      -1.726  41.389  -3.178  0.00  0.00    +0.161 C 
ATOM      4  C13 UNL     1      -1.404  39.912  -3.478  0.00  0.00    +0.214 C 
ATOM      5  O4  UNL     1      -0.075  39.637  -3.108  0.00  0.00    -0.218 OA
ATOM      6  C14 UNL     1      -2.387  39.154  -2.608  0.00  0.00    +0.234 C 
ATOM      7  O5  UNL     1      -1.814  38.027  -1.995  0.00  0.00    -0.216 OA
ENDROOT
BRANCH   1  17
ATOM      8  N1  UNL     1      -8.430  40.109   0.709  0.00  0.00    -0.105 NA
ATOM      9  C1  UNL     1      -7.222  40.790   0.360  0.00  0.00    +0.192 A 
ATOM     10  N2  UNL     1      -7.095  42.139   0.555  0.00  0.00    -0.204 NA
ATOM     11  C2  UNL     1      -5.942  42.802   0.214  0.00  0.00    +0.202 A 
ATOM     12  N3  UNL     1      -4.885  42.123  -0.327  0.00  0.00    -0.205 NA
ATOM     13  C3  UNL     1      -5.009  40.785  -0.512  0.00  0.00    +0.169 A 
ATOM     14  C4  UNL     1      -6.139  40.112  -0.189  0.00  0.00    +0.152 A 
ATOM     15  N4  UNL     1      -6.018  38.808  -0.498  0.00  0.00    -0.219 NA
ATOM     16  C5  UNL     1      -4.762  38.736  -1.018  0.00  0.00    +0.182 A 
ATOM     17  N5  UNL     1      -4.114  39.930  -1.034  0.00  0.00    -0.269 N 
ENDBRANCH   1  17
BRANCH   3  18
ATOM     18  C8  UNL     1      -2.207  42.145  -4.424  0.00  0.00    +0.090 C 
BRANCH  18  19
ATOM     19  S1  UNL     1      -3.412  43.444  -3.974  0.00  0.00    -0.138 S 
BRANCH  19  20
ATOM     20  C9  UNL     1      -2.377  44.860  -4.504  0.00  0.00    +0.060 C 
BRANCH  20  21
ATOM     21  C10 UNL     1      -3.012  46.197  -4.098  0.00  0.00    +0.042 C 
BRANCH  21  22
ATOM     22  C11 UNL     1      -2.392  47.419  -4.806  0.00  0.00    +0.195 C 
ATOM     23  N6  UNL     1      -1.525  48.139  -3.870  0.00  0.00    -0.121 NA
BRANCH  22  24
ATOM     24  C12 UNL     1      -3.445  48.349  -5.356  0.00  0.00    +0.382 C 
ATOM     25  O2  UNL     1      -3.624  49.479  -4.831  0.00  0.00    -0.244 OA
ATOM     26  O3  UNL     1      -4.260  47.945  -6.407  0.00  0.00    -0.244 OA
ENDBRANCH  22  24
ENDBRANCH  21  22
ENDBRANCH  20  21
ENDBRANCH  19  20
ENDBRANCH  18  19
ENDBRANCH   3  18
TORSDOF 7
ENDMDL
MODEL 2
REMARK VINA RESULT:      -7.6      3.438      6.793
REMARK  Name = ./threeLigTest/pdb/l2c0.pdb
REMARK  7 active torsions:
REMARK  status: ('A' for Active; 'I' for Inactive)
REMARK    1  A    between atoms: N5_10  and  C6_11
REMARK    2  A    between atoms: C7_13  and  C8_14
REMARK    3  A    between atoms: C8_14  and  S1_15
REMARK    4  A    between atoms: S1_15  and  C9_16
REMARK    5  A    between atoms: C9_16  and  C10_17
REMARK    6  A    between atoms: C10_17  and  C11_18
REMARK    7  A    between atoms: C11_18  and  C12_20
REMARK                            x       y       z     vdW  Elec       q    Type
REMARK                         _______ _______ _______ _____ _____    ______ ____
ROOT
ATOM      1  C6  UNL     1      -1.761  40.392  -1.886  0.00  0.00    +0.241 C 
ATOM      2  O1  UNL     1      -2.898  39.740  -2.395  0.00  0.00    -0.332 OA
ATOM      3  C7  UNL     1      -3.115  38.604  -1.583  0.00  0.00    +0.161 C 
ATOM      4  C13 UNL     1      -2.328  38.764  -0.268  0.00  0.00    +0.214 C 
ATOM      5  O4  UNL     1      -1.340  37.766  -0.187  0.00  0.00    -0.218 OA
ATOM      6  C14 UNL     1      -1.711  40.142  -0.392  0.00  0.00    +0.234 C 
ATOM      7  O5  UNL     1      -0.388  40.190   0.077  0.00  0.00    -0.216 OA
ENDROOT
BRANCH   1  17
ATOM      8  N1  UNL     1      -2.130  46.066  -4.087  0.00  0.00    -0.105 NA
ATOM      9  C1  UNL     1      -2.025  44.651  -4.263  0.00  0.00    +0.192 A 
ATOM     10  N2  UNL     1      -1.994  44.100  -5.516  0.00  0.00    -0.204 NA
ATOM     11  C2  UNL     1      -1.902  42.741  -5.693  0.00  0.00    +0.202 A 
ATOM     12  N3  UNL     1      -1.833  41.903  -4.615  0.00  0.00    -0.205 NA
ATOM     13  C3  UNL     1      -1.856  42.451  -3.374  0.00  0.00    +0.169 A 
ATOM     14  C4  UNL     1      -1.953  43.787  -3.176  0.00  0.00    +0.152 A 
ATOM     15  N4  UNL     1      -1.987  44.069  -1.860  0.00  0.00    -0.219 NA
ATOM     16  C5  UNL     1      -1.903  42.838  -1.286  0.00  0.00    +0.182 A 
ATOM     17  N5  UNL     1      -1.815  41.825  -2.187  0.00  0.00    -0.269 N 
ENDBRANCH   1  17
BRANCH   3  18
ATOM     18  C8  UNL     1      -4.621  38.441  -1.345  0.00  0.00    +0.090 C 
BRANCH  18  19
ATOM     19  S1  UNL     1      -4.943  37.593   0.242  0.00  0.00    -0.138 S 
BRANCH  19  20
ATOM     20  C9  UNL     1      -6.670  38.176   0.427  0.00  0.00    +0.060 C 
BRANCH  20  21
ATOM     21  C10 UNL     1      -6.879  39.527  -0.272  0.00  0.00    +0.042 C 
BRANCH  21  22
ATOM     22  C11 UNL     1      -6.960  40.723   0.699  0.00  0.00    +0.195 C 
ATOM     23  N6  UNL     1      -8.360  41.110   0.882  0.00  0.00    -0.121 NA
BRANCH  22  24
ATOM     24  C12 UNL     1      -6.155  41.902   0.212  0.00  0.00    +0.382 C 
ATOM     25  O2  UNL     1      -6.533  43.074   0.474  0.00  0.00    -0.244 OA
ATOM     26  O3  UNL     1      -5.025  41.707  -0.573  0.00  0.00    -0.244 OA
ENDBRANCH  22  24
ENDBRANCH  21  22
ENDBRANCH  20  21
ENDBRANCH  19  20
ENDBRANCH  18  19
ENDBRANCH   3  18
TORSDOF 7
ENDMDL
MODEL 3
REMARK VINA RESULT:      -7.4      1.896      2.792
REMARK  Name = ./threeLigTest/pdb/l2c0.pdb
REMARK  7 active torsions:
REMARK  status: ('A' for Active; 'I' for Inactive)
REMARK    1  A    between atoms: N5_10  and  C6_11
REMARK    2  A    between atoms: C7_13  and  C8_14
REMARK    3  A    between atoms: C8_14  and  S1_15
REMARK    4  A    between atoms: S1_15  and  C9_16
REMARK    5  A    between atoms: C9_16  and  C10_17
REMARK    6  A    between atoms: C10_17  and  C11_18
REMARK    7  A    between atoms: C11_18  and  C12_20
REMARK                            x       y       z     vdW  Elec       q    Type
REMARK                         _______ _______ _______ _____ _____    ______ ____
ROOT
ATOM      1  C6  UNL     1      -2.785  39.730  -1.487  0.00  0.00    +0.241 C 
ATOM      2  O1  UNL     1      -2.670  41.101  -1.775  0.00  0.00    -0.332 OA
ATOM      3  C7  UNL     1      -1.619  41.236  -2.710  0.00  0.00    +0.161 C 
ATOM      4  C13 UNL     1      -1.325  39.862  -3.343  0.00  0.00    +0.214 C 
ATOM      5  O4  UNL     1      -0.025  39.452  -2.995  0.00  0.00    -0.218 OA
ATOM      6  C14 UNL     1      -2.373  38.958  -2.726  0.00  0.00    +0.234 C 
ATOM      7  O5  UNL     1      -1.866  37.695  -2.380  0.00  0.00    -0.216 OA
ENDROOT
BRANCH   1  17
ATOM      8  N1  UNL     1      -8.074  37.583   0.654  0.00  0.00    -0.105 NA
ATOM      9  C1  UNL     1      -6.672  37.456   0.402  0.00  0.00    +0.192 A 
ATOM     10  N2  UNL     1      -5.987  36.338   0.796  0.00  0.00    -0.204 NA
ATOM     11  C2  UNL     1      -4.639  36.212   0.567  0.00  0.00    +0.202 A 
ATOM     12  N3  UNL     1      -3.947  37.206  -0.068  0.00  0.00    -0.205 NA
ATOM     13  C3  UNL     1      -4.629  38.310  -0.465  0.00  0.00    +0.169 A 
ATOM     14  C4  UNL     1      -5.957  38.458  -0.243  0.00  0.00    +0.152 A 
ATOM     15  N4  UNL     1      -6.383  39.648  -0.704  0.00  0.00    -0.219 NA
ATOM     16  C5  UNL     1      -5.247  40.201  -1.210  0.00  0.00    +0.182 A 
ATOM     17  N5  UNL     1      -4.155  39.402  -1.086  0.00  0.00    -0.269 N 
ENDBRANCH   1  17
BRANCH   3  18
ATOM     18  C8  UNL     1      -2.012  42.287  -3.755  0.00  0.00    +0.090 C 
BRANCH  18  19
ATOM     19  S1  UNL     1      -3.622  43.049  -3.340  0.00  0.00    -0.138 S 
BRANCH  19  20
ATOM     20  C9  UNL     1      -3.302  44.647  -4.177  0.00  0.00    +0.060 C 
BRANCH  20  21
ATOM     21  C10 UNL     1      -2.715  45.678  -3.203  0.00  0.00    +0.042 C 
BRANCH  21  22
ATOM     22  C11 UNL     1      -1.188  45.857  -3.334  0.00  0.00    +0.195 C 
ATOM     23  N6  UNL     1      -0.532  45.346  -2.128  0.00  0.00    -0.121 NA
BRANCH  22  24
ATOM     24  C12 UNL     1      -0.805  47.298  -3.562  0.00  0.00    +0.382 C 
ATOM     25  O2  UNL     1       0.328  47.713  -3.202  0.00  0.00    -0.244 OA
ATOM     26  O3  UNL     1      -1.716  48.189  -4.117  0.00  0.00    -0.244 OA
ENDBRANCH  22  24
ENDBRANCH  21  22
ENDBRANCH  20  21
ENDBRANCH  19  20
ENDBRANCH  18  19
ENDBRANCH   3  18
TORSDOF 7
ENDMDL
MODEL 4
REMARK VINA RESULT:      -7.3      3.273      5.425
REMARK  Name = ./threeLigTest/pdb/l2c0.pdb
REMARK  7 active torsions:
REMARK  status: ('A' for Active; 'I' for Inactive)
REMARK    1  A    between atoms: N5_10  and  C6_11
REMARK    2  A    between atoms: C7_13  and  C8_14
REMARK    3  A    between atoms: C8_14  and  S1_15
REMARK    4  A    between atoms: S1_15  and  C9_16
REMARK    5  A    between atoms: C9_16  and  C10_17
REMARK    6  A    between atoms: C10_17  and  C11_18
REMARK    7  A    between atoms: C11_18  and  C12_20
REMARK                            x       y       z     vdW  Elec       q    Type
REMARK                         _______ _______ _______ _____ _____    ______ ____
ROOT
ATOM      1  C6  UNL     1      -2.616  40.633  -2.734  0.00  0.00    +0.241 C 
ATOM      2  O1  UNL     1      -2.695  41.898  -3.343  0.00  0.00    -0.332 OA
ATOM      3  C7  UNL     1      -3.393  42.739  -2.448  0.00  0.00    +0.161 C 
ATOM      4  C13 UNL     1      -3.403  42.093  -1.049  0.00  0.00    +0.214 C 
ATOM      5  O4  UNL     1      -4.726  41.780  -0.686  0.00  0.00    -0.218 OA
ATOM      6  C14 UNL     1      -2.570  40.841  -1.233  0.00  0.00    +0.234 C 
ATOM      7  O5  UNL     1      -3.102  39.730  -0.560  0.00  0.00    -0.216 OA
ENDROOT
BRANCH   1  17
ATOM      8  N1  UNL     1       2.225  38.197  -5.527  0.00  0.00    -0.105 NA
ATOM      9  C1  UNL     1       1.057  39.022  -5.521  0.00  0.00    +0.192 A 
ATOM     10  N2  UNL     1       0.686  39.722  -6.638  0.00  0.00    -0.204 NA
ATOM     11  C2  UNL     1      -0.428  40.524  -6.637  0.00  0.00    +0.202 A 
ATOM     12  N3  UNL     1      -1.202  40.637  -5.515  0.00  0.00    -0.205 NA
ATOM     13  C3  UNL     1      -0.837  39.937  -4.412  0.00  0.00    +0.169 A 
ATOM     14  C4  UNL     1       0.261  39.146  -4.388  0.00  0.00    +0.152 A 
ATOM     15  N4  UNL     1       0.417  38.589  -3.173  0.00  0.00    -0.219 NA
ATOM     16  C5  UNL     1      -0.641  39.085  -2.475  0.00  0.00    +0.182 A 
ATOM     17  N5  UNL     1      -1.434  39.909  -3.209  0.00  0.00    -0.269 N 
ENDBRANCH   1  17
BRANCH   3  18
ATOM     18  C8  UNL     1      -2.733  44.123  -2.446  0.00  0.00    +0.090 C 
BRANCH  18  19
ATOM     19  S1  UNL     1      -1.798  44.403  -3.992  0.00  0.00    -0.138 S 
BRANCH  19  20
ATOM     20  C9  UNL     1      -1.230  46.093  -3.573  0.00  0.00    +0.060 C 
BRANCH  20  21
ATOM     21  C10 UNL     1      -2.387  47.100  -3.630  0.00  0.00    +0.042 C 
BRANCH  21  22
ATOM     22  C11 UNL     1      -2.058  48.380  -4.426  0.00  0.00    +0.195 C 
ATOM     23  N6  UNL     1      -1.509  49.391  -3.521  0.00  0.00    -0.121 NA
BRANCH  22  24
ATOM     24  C12 UNL     1      -3.267  48.926  -5.143  0.00  0.00    +0.382 C 
ATOM     25  O2  UNL     1      -3.845  49.957  -4.708  0.00  0.00    -0.244 OA
ATOM     26  O3  UNL     1      -3.785  48.268  -6.252  0.00  0.00    -0.244 OA
ENDBRANCH  22  24
ENDBRANCH  21  22
ENDBRANCH  20  21
ENDBRANCH  19  20
ENDBRANCH  18  19
ENDBRANCH   3  18
TORSDOF 7
ENDMDL
MODEL 5
REMARK VINA RESULT:      -7.1      3.526      5.358
REMARK  Name = ./threeLigTest/pdb/l2c0.pdb
REMARK  7 active torsions:
REMARK  status: ('A' for Active; 'I' for Inactive)
REMARK    1  A    between atoms: N5_10  and  C6_11
REMARK    2  A    between atoms: C7_13  and  C8_14
REMARK    3  A    between atoms: C8_14  and  S1_15
REMARK    4  A    between atoms: S1_15  and  C9_16
REMARK    5  A    between atoms: C9_16  and  C10_17
REMARK    6  A    between atoms: C10_17  and  C11_18
REMARK    7  A    between atoms: C11_18  and  C12_20
REMARK                            x       y       z     vdW  Elec       q    Type
REMARK                         _______ _______ _______ _____ _____    ______ ____
ROOT
ATOM      1  C6  UNL     1      -2.139  40.148  -2.663  0.00  0.00    +0.241 C 
ATOM      2  O1  UNL     1      -2.203  41.232  -3.556  0.00  0.00    -0.332 OA
ATOM      3  C7  UNL     1      -2.663  42.344  -2.816  0.00  0.00    +0.161 C 
ATOM      4  C13 UNL     1      -2.498  42.054  -1.311  0.00  0.00    +0.214 C 
ATOM      5  O4  UNL     1      -3.764  42.010  -0.700  0.00  0.00    -0.218 OA
ATOM      6  C14 UNL     1      -1.825  40.697  -1.285  0.00  0.00    +0.234 C 
ATOM      7  O5  UNL     1      -2.336  39.855  -0.284  0.00  0.00    -0.216 OA
ENDROOT
BRANCH   1  17
ATOM      8  N1  UNL     1       1.482  35.446  -4.060  0.00  0.00    -0.105 NA
ATOM      9  C1  UNL     1       0.361  36.013  -3.377  0.00  0.00    +0.192 A 
ATOM     10  N2  UNL     1      -0.449  35.237  -2.592  0.00  0.00    -0.204 NA
ATOM     11  C2  UNL     1      -1.533  35.773  -1.941  0.00  0.00    +0.202 A 
ATOM     12  N3  UNL     1      -1.826  37.103  -2.059  0.00  0.00    -0.205 NA
ATOM     13  C3  UNL     1      -1.019  37.872  -2.831  0.00  0.00    +0.169 A 
ATOM     14  C4  UNL     1       0.051  37.364  -3.487  0.00  0.00    +0.152 A 
ATOM     15  N4  UNL     1       0.666  38.324  -4.204  0.00  0.00    -0.219 NA
ATOM     16  C5  UNL     1      -0.088  39.426  -3.942  0.00  0.00    +0.182 A 
ATOM     17  N5  UNL     1      -1.124  39.184  -3.097  0.00  0.00    -0.269 N 
ENDBRANCH   1  17
BRANCH   3  18
ATOM     18  C8  UNL     1      -1.888  43.592  -3.257  0.00  0.00    +0.090 C 
BRANCH  18  19
ATOM     19  S1  UNL     1      -2.771  45.116  -2.767  0.00  0.00    -0.138 S 
BRANCH  19  20
ATOM     20  C9  UNL     1      -2.534  45.996  -4.356  0.00  0.00    +0.060 C 
BRANCH  20  21
ATOM     21  C10 UNL     1      -1.831  47.345  -4.146  0.00  0.00    +0.042 C 
BRANCH  21  22
ATOM     22  C11 UNL     1      -2.709  48.564  -4.498  0.00  0.00    +0.195 C 
ATOM     23  N6  UNL     1      -3.116  48.484  -5.902  0.00  0.00    -0.121 NA
BRANCH  22  24
ATOM     24  C12 UNL     1      -1.996  49.867  -4.238  0.00  0.00    +0.382 C 
ATOM     25  O2  UNL     1      -2.182  50.851  -5.002  0.00  0.00    -0.244 OA
ATOM     26  O3  UNL     1      -1.088  49.977  -3.191  0.00  0.00    -0.244 OA
ENDBRANCH  22  24
ENDBRANCH  21  22
ENDBRANCH  20  21
ENDBRANCH  19  20
ENDBRANCH  18  19
ENDBRANCH   3  18
TORSDOF 7
ENDMDL
MODEL 6
REMARK VINA RESULT:      -7.0      4.102      6.665
REMARK  Name = ./threeLigTest/pdb/l2c0.pdb
REMARK  7 active torsions:
REMARK  status: ('A' for Active; 'I' for Inactive)
REMARK    1  A    between atoms: N5_10  and  C6_11
REMARK    2  A    between atoms: C7_13  and  C8_14
REMARK    3  A    between atoms: C8_14  and  S1_15
REMARK    4  A    between atoms: S1_15  and  C9_16
REMARK    5  A    between atoms: C9_16  and  C10_17
REMARK    6  A    between atoms: C10_17  and  C11_18
REMARK    7  A    between atoms: C11_18  and  C12_20
REMARK                            x       y       z     vdW  Elec       q    Type
REMARK                         _______ _______ _______ _____ _____    ______ ____
ROOT
ATOM      1  C6  UNL     1      -3.831  40.260  -1.611  0.00  0.00    +0.241 C 
ATOM      2  O1  UNL     1      -3.344  39.180  -0.854  0.00  0.00    -0.332 OA
ATOM      3  C7  UNL     1      -2.023  38.937  -1.293  0.00  0.00    +0.161 C 
ATOM      4  C13 UNL     1      -1.513  40.166  -2.072  0.00  0.00    +0.214 C 
ATOM      5  O4  UNL     1      -1.278  39.808  -3.411  0.00  0.00    -0.218 OA
ATOM      6  C14 UNL     1      -2.656  41.154  -1.957  0.00  0.00    +0.234 C 
ATOM      7  O5  UNL     1      -2.895  41.851  -3.153  0.00  0.00    -0.216 OA
ENDROOT
BRANCH   1  17
ATOM      8  N1  UNL     1      -8.467  42.395   1.723  0.00  0.00    -0.105 NA
ATOM      9  C1  UNL     1      -7.787  41.337   1.043  0.00  0.00    +0.192 A 
ATOM     10  N2  UNL     1      -8.284  40.062   1.054  0.00  0.00    -0.204 NA
ATOM     11  C2  UNL     1      -7.632  39.039   0.411  0.00  0.00    +0.202 A 
ATOM     12  N3  UNL     1      -6.466  39.273  -0.263  0.00  0.00    -0.205 NA
ATOM     13  C3  UNL     1      -5.978  40.539  -0.279  0.00  0.00    +0.169 A 
ATOM     14  C4  UNL     1      -6.601  41.562   0.353  0.00  0.00    +0.152 A 
ATOM     15  N4  UNL     1      -5.901  42.703   0.210  0.00  0.00    -0.219 NA
ATOM     16  C5  UNL     1      -4.834  42.311  -0.537  0.00  0.00    +0.182 A 
ATOM     17  N5  UNL     1      -4.855  40.992  -0.861  0.00  0.00    -0.269 N 
ENDBRANCH   1  17
BRANCH   3  18
ATOM     18  C8  UNL     1      -1.145  38.613  -0.077  0.00  0.00    +0.090 C 
BRANCH  18  19
ATOM     19  S1  UNL     1      -0.486  36.911  -0.183  0.00  0.00    -0.138 S 
BRANCH  19  20
ATOM     20  C9  UNL     1       1.210  37.390  -0.682  0.00  0.00    +0.060 C 
BRANCH  20  21
ATOM     21  C10 UNL     1       1.774  36.426  -1.736  0.00  0.00    +0.042 C 
BRANCH  21  22
ATOM     22  C11 UNL     1       2.221  37.123  -3.037  0.00  0.00    +0.195 C 
ATOM     23  N6  UNL     1       2.351  38.562  -2.801  0.00  0.00    -0.121 NA
BRANCH  22  24
ATOM     24  C12 UNL     1       1.260  36.869  -4.172  0.00  0.00    +0.382 C 
ATOM     25  O2  UNL     1       1.601  37.130  -5.356  0.00  0.00    -0.244 OA
ATOM     26  O3  UNL     1      -0.023  36.400  -3.917  0.00  0.00    -0.244 OA
ENDBRANCH  22  24
ENDBRANCH  21  22
ENDBRANCH  20  21
ENDBRANCH  19  20
ENDBRANCH  18  19
ENDBRANCH   3  18
TORSDOF 7
ENDMDL
MODEL 7
REMARK VINA RESULT:      -6.2      4.437      6.947
REMARK  Name = ./threeLigTest/pdb/l2c0.pdb
REMARK  7 active torsions:
REMARK  status: ('A' for Active; 'I' for Inactive)
REMARK    1  A    between atoms: N5_10  and  C6_11
REMARK    2  A    between atoms: C7_13  and  C8_14
REMARK    3  A    between atoms: C8_14  and  S1_15
REMARK    4  A    between atoms: S1_15  and  C9_16
REMARK    5  A    between atoms: C9_16  and  C10_17
REMARK    6  A    between atoms: C10_17  and  C11_18
REMARK    7  A    between atoms: C11_18  and  C12_20
REMARK                            x       y       z     vdW  Elec       q    Type
REMARK                         _______ _______ _______ _____ _____    ______ ____
ROOT
ATOM      1  C6  UNL     1      -3.915  40.030  -1.632  0.00  0.00    +0.241 C 
ATOM      2  O1  UNL     1      -4.294  38.678  -1.690  0.00  0.00    -0.332 OA
ATOM      3  C7  UNL     1      -3.106  37.925  -1.826  0.00  0.00    +0.161 C 
ATOM      4  C13 UNL     1      -1.902  38.804  -1.433  0.00  0.00    +0.214 C 
ATOM      5  O4  UNL     1      -1.078  39.000  -2.556  0.00  0.00    -0.218 OA
ATOM      6  C14 UNL     1      -2.544  40.102  -0.987  0.00  0.00    +0.234 C 
ATOM      7  O5  UNL     1      -1.844  41.236  -1.429  0.00  0.00    -0.216 OA
ENDROOT
BRANCH   1  17
ATOM      8  N1  UNL     1      -8.411  42.373   1.754  0.00  0.00    -0.105 NA
ATOM      9  C1  UNL     1      -7.775  41.280   1.086  0.00  0.00    +0.192 A 
ATOM     10  N2  UNL     1      -8.304  40.018   1.144  0.00  0.00    -0.204 NA
ATOM     11  C2  UNL     1      -7.694  38.962   0.514  0.00  0.00    +0.202 A 
ATOM     12  N3  UNL     1      -6.540  39.148  -0.194  0.00  0.00    -0.205 NA
ATOM     13  C3  UNL     1      -6.021  40.400  -0.257  0.00  0.00    +0.169 A 
ATOM     14  C4  UNL     1      -6.601  41.455   0.362  0.00  0.00    +0.152 A 
ATOM     15  N4  UNL     1      -5.877  42.573   0.172  0.00  0.00    -0.219 NA
ATOM     16  C5  UNL     1      -4.838  42.134  -0.590  0.00  0.00    +0.182 A 
ATOM     17  N5  UNL     1      -4.901  40.808  -0.877  0.00  0.00    -0.269 N 
ENDBRANCH   1  17
BRANCH   3  18
ATOM     18  C8  UNL     1      -3.213  36.663  -0.961  0.00  0.00    +0.090 C 
BRANCH  18  19
ATOM     19  S1  UNL     1      -2.982  37.062   0.808  0.00  0.00    -0.138 S 
BRANCH  19  20
ATOM     20  C9  UNL     1      -1.692  35.800   1.125  0.00  0.00    +0.060 C 
BRANCH  20  21
ATOM     21  C10 UNL     1      -0.453  36.423   1.784  0.00  0.00    +0.042 C 
BRANCH  21  22
ATOM     22  C11 UNL     1       0.313  37.399   0.867  0.00  0.00    +0.195 C 
ATOM     23  N6  UNL     1       1.680  36.911   0.669  0.00  0.00    -0.121 NA
BRANCH  22  24
ATOM     24  C12 UNL     1       0.339  38.799   1.428  0.00  0.00    +0.382 C 
ATOM     25  O2  UNL     1       0.880  39.729   0.775  0.00  0.00    -0.244 OA
ATOM     26  O3  UNL     1      -0.183  39.062   2.689  0.00  0.00    -0.244 OA
ENDBRANCH  22  24
ENDBRANCH  21  22
ENDBRANCH  20  21
ENDBRANCH  19  20
ENDBRANCH  18  19
ENDBRANCH   3  18
TORSDOF 7
ENDMDL
MODEL 8
REMARK VINA RESULT:      -6.0      4.650      6.227
REMARK  Name = ./threeLigTest/pdb/l2c0.pdb
REMARK  7 active torsions:
REMARK  status: ('A' for Active; 'I' for Inactive)
REMARK    1  A    between atoms: N5_10  and  C6_11
REMARK    2  A    between atoms: C7_13  and  C8_14
REMARK    3  A    between atoms: C8_14  and  S1_15
REMARK    4  A    between atoms: S1_15  and  C9_16
REMARK    5  A    between atoms: C9_16  and  C10_17
REMARK    6  A    between atoms: C10_17  and  C11_18
REMARK    7  A    between atoms: C11_18  and  C12_20
REMARK                            x       y       z     vdW  Elec       q    Type
REMARK                         _______ _______ _______ _____ _____    ______ ____
ROOT
ATOM      1  C6  UNL     1      -3.372  39.422  -1.693  0.00  0.00    +0.241 C 
ATOM      2  O1  UNL     1      -3.285  38.236  -2.444  0.00  0.00    -0.332 OA
ATOM      3  C7  UNL     1      -1.910  37.956  -2.606  0.00  0.00    +0.161 C 
ATOM      4  C13 UNL     1      -1.102  38.771  -1.577  0.00  0.00    +0.214 C 
ATOM      5  O4  UNL     1      -0.277  39.690  -2.249  0.00  0.00    -0.218 OA
ATOM      6  C14 UNL     1      -2.172  39.477  -0.769  0.00  0.00    +0.234 C 
ATOM      7  O5  UNL     1      -1.836  40.807  -0.467  0.00  0.00    -0.216 OA
ENDROOT
BRANCH   1  17
ATOM      8  N1  UNL     1      -8.548  40.577   1.315  0.00  0.00    -0.105 NA
ATOM      9  C1  UNL     1      -7.335  40.999   0.687  0.00  0.00    +0.192 A 
ATOM     10  N2  UNL     1      -7.007  42.327   0.615  0.00  0.00    -0.204 NA
ATOM     11  C2  UNL     1      -5.848  42.741   0.005  0.00  0.00    +0.202 A 
ATOM     12  N3  UNL     1      -4.988  41.830  -0.542  0.00  0.00    -0.205 NA
ATOM     13  C3  UNL     1      -5.311  40.515  -0.464  0.00  0.00    +0.169 A 
ATOM     14  C4  UNL     1      -6.451  40.084   0.127  0.00  0.00    +0.152 A 
ATOM     15  N4  UNL     1      -6.549  38.744   0.045  0.00  0.00    -0.219 NA
ATOM     16  C5  UNL     1      -5.413  38.398  -0.620  0.00  0.00    +0.182 A 
ATOM     17  N5  UNL     1      -4.629  39.460  -0.940  0.00  0.00    -0.269 N 
ENDBRANCH   1  17
BRANCH   3  18
ATOM     18  C8  UNL     1      -1.688  36.445  -2.456  0.00  0.00    +0.090 C 
BRANCH  18  19
ATOM     19  S1  UNL     1       0.028  36.086  -1.938  0.00  0.00    -0.138 S 
BRANCH  19  20
ATOM     20  C9  UNL     1       0.756  36.152  -3.618  0.00  0.00    +0.060 C 
BRANCH  20  21
ATOM     21  C10 UNL     1       2.289  36.206  -3.559  0.00  0.00    +0.042 C 
BRANCH  21  22
ATOM     22  C11 UNL     1       2.867  37.627  -3.725  0.00  0.00    +0.195 C 
ATOM     23  N6  UNL     1       2.772  38.345  -2.452  0.00  0.00    -0.121 NA
BRANCH  22  24
ATOM     24  C12 UNL     1       2.162  38.400  -4.811  0.00  0.00    +0.382 C 
ATOM     25  O2  UNL     1       1.542  39.460  -4.529  0.00  0.00    -0.244 OA
ATOM     26  O3  UNL     1       2.142  37.923  -6.116  0.00  0.00    -0.244 OA
ENDBRANCH  22  24
ENDBRANCH  21  22
ENDBRANCH  20  21
ENDBRANCH  19  20
ENDBRANCH  18  19
ENDBRANCH   3  18
TORSDOF 7
ENDMDL
MODEL 9
REMARK VINA RESULT:      -5.9      4.557      7.088
REMARK  Name = ./threeLigTest/pdb/l2c0.pdb
REMARK  7 active torsions:
REMARK  status: ('A' for Active; 'I' for Inactive)
REMARK    1  A    between atoms: N5_10  and  C6_11
REMARK    2  A    between atoms: C7_13  and  C8_14
REMARK    3  A    between atoms: C8_14  and  S1_15
REMARK    4  A    between atoms: S1_15  and  C9_16
REMARK    5  A    between atoms: C9_16  and  C10_17
REMARK    6  A    between atoms: C10_17  and  C11_18
REMARK    7  A    between atoms: C11_18  and  C12_20
REMARK                            x       y       z     vdW  Elec       q    Type
REMARK                         _______ _______ _______ _____ _____    ______ ____
ROOT
ATOM      1  C6  UNL     1      -3.441  39.277  -1.763  0.00  0.00    +0.241 C 
ATOM      2  O1  UNL     1      -3.292  37.976  -2.275  0.00  0.00    -0.332 OA
ATOM      3  C7  UNL     1      -1.906  37.761  -2.447  0.00  0.00    +0.161 C 
ATOM      4  C13 UNL     1      -1.126  38.814  -1.636  0.00  0.00    +0.214 C 
ATOM      5  O4  UNL     1      -0.396  39.637  -2.513  0.00  0.00    -0.218 OA
ATOM      6  C14 UNL     1      -2.216  39.593  -0.927  0.00  0.00    +0.234 C 
ATOM      7  O5  UNL     1      -1.971  40.975  -0.904  0.00  0.00    -0.216 OA
ENDROOT
BRANCH   1  17
ATOM      8  N1  UNL     1      -8.481  40.688   1.364  0.00  0.00    -0.105 NA
ATOM      9  C1  UNL     1      -7.281  41.053   0.677  0.00  0.00    +0.192 A 
ATOM     10  N2  UNL     1      -6.926  42.368   0.536  0.00  0.00    -0.204 NA
ATOM     11  C2  UNL     1      -5.780  42.726  -0.131  0.00  0.00    +0.202 A 
ATOM     12  N3  UNL     1      -4.960  41.772  -0.666  0.00  0.00    -0.205 NA
ATOM     13  C3  UNL     1      -5.310  40.470  -0.518  0.00  0.00    +0.169 A 
ATOM     14  C4  UNL     1      -6.438  40.093   0.129  0.00  0.00    +0.152 A 
ATOM     15  N4  UNL     1      -6.570  38.754   0.110  0.00  0.00    -0.219 NA
ATOM     16  C5  UNL     1      -5.466  38.352  -0.577  0.00  0.00    +0.182 A 
ATOM     17  N5  UNL     1      -4.669  39.379  -0.970  0.00  0.00    -0.269 N 
ENDBRANCH   1  17
BRANCH   3  18
ATOM     18  C8  UNL     1      -1.567  36.328  -2.020  0.00  0.00    +0.090 C 
BRANCH  18  19
ATOM     19  S1  UNL     1      -2.793  35.696  -0.820  0.00  0.00    -0.138 S 
BRANCH  19  20
ATOM     20  C9  UNL     1      -1.832  36.120   0.681  0.00  0.00    +0.060 C 
BRANCH  20  21
ATOM     21  C10 UNL     1      -2.665  36.966   1.655  0.00  0.00    +0.042 C 
BRANCH  21  22
ATOM     22  C11 UNL     1      -2.096  37.000   3.089  0.00  0.00    +0.195 C 
ATOM     23  N6  UNL     1      -3.193  36.883   4.052  0.00  0.00    -0.121 NA
BRANCH  22  24
ATOM     24  C12 UNL     1      -1.306  38.258   3.353  0.00  0.00    +0.382 C 
ATOM     25  O2  UNL     1      -0.833  38.475   4.500  0.00  0.00    -0.244 OA
ATOM     26  O3  UNL     1      -1.142  39.209   2.354  0.00  0.00    -0.244 OA
ENDBRANCH  22  24
ENDBRANCH  21  22
ENDBRANCH  20  21
ENDBRANCH  19  20
ENDBRANCH  18  19
ENDBRANCH   3  18
TORSDOF 7
ENDMDL
