MODEL 1
REMARK VINA RESULT:      -7.6      0.000      0.000
REMARK  Name = ./threeLigTest/pdb/l0c2.pdb
REMARK  11 active torsions:
REMARK  status: ('A' for Active; 'I' for Inactive)
REMARK    1  A    between atoms: O1_2  and  C2_3
REMARK    2  A    between atoms: C5_6  and  C6_7
REMARK    3  A    between atoms: N2_9  and  C7_10
REMARK    4  A    between atoms: C19_23  and  O3_24
REMARK    5  A    between atoms: O3_24  and  C20_25
REMARK    6  A    between atoms: C20_25  and  C21_26
REMARK    7  A    between atoms: C21_26  and  C22_27
REMARK    8  A    between atoms: C22_27  and  C23_28
REMARK    9  A    between atoms: C23_28  and  O4_29
REMARK   10  A    between atoms: O4_29  and  C24_30
REMARK   11  A    between atoms: C27_33  and  C28_34
REMARK                            x       y       z     vdW  Elec       q    Type
REMARK                         _______ _______ _______ _____ _____    ______ ____
ROOT
ATOM      1  C2  UNL     1      -1.939  41.818  -1.946  0.00  0.00    +0.172 A 
ATOM      2  C3  UNL     1      -2.159  41.625  -0.572  0.00  0.00    +0.040 A 
ATOM      3  C4  UNL     1      -2.193  40.338  -0.035  0.00  0.00    +0.005 A 
ATOM      4  C5  UNL     1      -2.021  39.207  -0.854  0.00  0.00    +0.019 A 
ATOM      5  C18 UNL     1      -1.815  39.409  -2.231  0.00  0.00    +0.041 A 
ATOM      6  C19 UNL     1      -1.756  40.706  -2.777  0.00  0.00    +0.172 A 
ENDROOT
BRANCH   4   7
ATOM      7  C6  UNL     1      -2.061  37.842  -0.239  0.00  0.00    +0.084 C 
ATOM      8  N1  UNL     1      -2.938  37.560   0.679  0.00  0.00    -0.180 NA
ATOM      9  N2  UNL     1      -2.812  36.244   1.118  0.00  0.00    -0.183 N 
ATOM     10  C14 UNL     1      -1.730  35.663   0.414  0.00  0.00    +0.249 C 
ATOM     11  O2  UNL     1      -1.320  34.485   0.591  0.00  0.00    -0.273 OA
ATOM     12  C15 UNL     1      -1.137  36.656  -0.533  0.00  0.00    +0.107 C 
ATOM     13  C16 UNL     1       0.319  36.924  -0.121  0.00  0.00    +0.015 C 
ATOM     14  C17 UNL     1      -1.267  36.132  -1.972  0.00  0.00    +0.015 C 
BRANCH   9  15
ATOM     15  C7  UNL     1      -3.482  35.736   2.320  0.00  0.00    +0.099 C 
ATOM     16  C8  UNL     1      -2.618  35.993   3.585  0.00  0.00    +0.022 C 
ATOM     17  C9  UNL     1      -3.087  37.123   4.520  0.00  0.00    +0.002 C 
ATOM     18  C10 UNL     1      -4.228  36.687   5.451  0.00  0.00    +0.000 C 
ATOM     19  C11 UNL     1      -5.605  36.718   4.779  0.00  0.00    +0.000 C 
ATOM     20  C12 UNL     1      -5.723  35.760   3.588  0.00  0.00    +0.002 C 
ATOM     21  C13 UNL     1      -4.936  36.253   2.362  0.00  0.00    +0.022 C 
ENDBRANCH   9  15
ENDBRANCH   4   7
BRANCH   1  23
ATOM     22  C1  UNL     1      -1.671  44.302  -1.796  0.00  0.00    +0.253 C 
ATOM     23  O1  UNL     1      -1.894  43.097  -2.523  0.00  0.00    -0.468 OA
ENDBRANCH   1  23
BRANCH   6  24
ATOM     24  O3  UNL     1      -1.522  40.936  -4.145  0.00  0.00    -0.472 OA
BRANCH  24  25
ATOM     25  C20 UNL     1      -0.779  40.086  -5.023  0.00  0.00    +0.206 C 
BRANCH  25  26
ATOM     26  C21 UNL     1      -0.785  40.620  -6.461  0.00  0.00    +0.051 C 
BRANCH  26  27
ATOM     27  C22 UNL     1      -0.857  42.152  -6.493  0.00  0.00    +0.051 C 
BRANCH  27  28
ATOM     28  C23 UNL     1      -2.220  42.690  -6.040  0.00  0.00    +0.206 C 
BRANCH  28  29
ATOM     29  O4  UNL     1      -2.643  43.787  -6.857  0.00  0.00    -0.475 OA
BRANCH  29  30
ATOM     30  C24 UNL     1      -2.836  45.116  -6.441  0.00  0.00    +0.139 A 
ATOM     31  C25 UNL     1      -2.560  45.427  -5.106  0.00  0.00    +0.037 A 
ATOM     32  C26 UNL     1      -2.734  46.727  -4.624  0.00  0.00    +0.006 A 
ATOM     33  C27 UNL     1      -3.192  47.746  -5.475  0.00  0.00    +0.040 A 
ATOM     34  C29 UNL     1      -3.474  47.436  -6.816  0.00  0.00    +0.006 A 
ATOM     35  C30 UNL     1      -3.300  46.135  -7.296  0.00  0.00    +0.037 A 
BRANCH  33  36
ATOM     36  C28 UNL     1      -3.339  49.128  -4.975  0.00  0.00    +0.208 A 
ATOM     37  N3  UNL     1      -2.359  50.054  -4.990  0.00  0.00    -0.106 NA
ATOM     38  N4  UNL     1      -2.890  51.126  -4.425  0.00  0.00    -0.021 NA
ATOM     39  N5  UNL     1      -4.138  50.858  -4.082  0.00  0.00    -0.021 NA
ATOM     40  N6  UNL     1      -4.458  49.615  -4.400  0.00  0.00    -0.106 NA
ENDBRANCH  33  36
ENDBRANCH  29  30
ENDBRANCH  28  29
ENDBRANCH  27  28
ENDBRANCH  26  27
ENDBRANCH  25  26
ENDBRANCH  24  25
ENDBRANCH   6  24
TORSDOF 11
ENDMDL
MODEL 2
REMARK VINA RESULT:      -7.5      1.951      2.996
REMARK  Name = ./threeLigTest/pdb/l0c2.pdb
REMARK  11 active torsions:
REMARK  status: ('A' for Active; 'I' for Inactive)
REMARK    1  A    between atoms: O1_2  and  C2_3
REMARK    2  A    between atoms: C5_6  and  C6_7
REMARK    3  A    between atoms: N2_9  and  C7_10
REMARK    4  A    between atoms: C19_23  and  O3_24
REMARK    5  A    between atoms: O3_24  and  C20_25
REMARK    6  A    between atoms: C20_25  and  C21_26
REMARK    7  A    between atoms: C21_26  and  C22_27
REMARK    8  A    between atoms: C22_27  and  C23_28
REMARK    9  A    between atoms: C23_28  and  O4_29
REMARK   10  A    between atoms: O4_29  and  C24_30
REMARK   11  A    between atoms: C27_33  and  C28_34
REMARK                            x       y       z     vdW  Elec       q    Type
REMARK                         _______ _______ _______ _____ _____    ______ ____
ROOT
ATOM      1  C2  UNL     1      -3.781  41.211  -1.834  0.00  0.00    +0.172 A 
ATOM      2  C3  UNL     1      -5.005  40.899  -1.219  0.00  0.00    +0.040 A 
ATOM      3  C4  UNL     1      -5.171  39.686  -0.549  0.00  0.00    +0.005 A 
ATOM      4  C5  UNL     1      -4.127  38.746  -0.485  0.00  0.00    +0.019 A 
ATOM      5  C18 UNL     1      -2.909  39.061  -1.115  0.00  0.00    +0.041 A 
ATOM      6  C19 UNL     1      -2.725  40.293  -1.772  0.00  0.00    +0.172 A 
ENDROOT
BRANCH   4   7
ATOM      7  C6  UNL     1      -4.343  37.457   0.245  0.00  0.00    +0.084 C 
ATOM      8  N1  UNL     1      -3.455  37.023   1.091  0.00  0.00    -0.180 NA
ATOM      9  N2  UNL     1      -3.843  35.814   1.664  0.00  0.00    -0.183 N 
ATOM     10  C14 UNL     1      -5.088  35.455   1.095  0.00  0.00    +0.249 C 
ATOM     11  O2  UNL     1      -5.712  34.394   1.367  0.00  0.00    -0.273 OA
ATOM     12  C15 UNL     1      -5.526  36.492   0.111  0.00  0.00    +0.107 C 
ATOM     13  C16 UNL     1      -5.610  35.849  -1.282  0.00  0.00    +0.015 C 
ATOM     14  C17 UNL     1      -6.859  37.104   0.572  0.00  0.00    +0.015 C 
BRANCH   9  15
ATOM     15  C7  UNL     1      -2.930  34.970   2.442  0.00  0.00    +0.099 C 
ATOM     16  C8  UNL     1      -1.625  34.689   1.647  0.00  0.00    +0.022 C 
ATOM     17  C9  UNL     1      -0.366  35.447   2.102  0.00  0.00    +0.002 C 
ATOM     18  C10 UNL     1       0.304  34.805   3.326  0.00  0.00    +0.000 C 
ATOM     19  C11 UNL     1      -0.363  35.186   4.652  0.00  0.00    +0.000 C 
ATOM     20  C12 UNL     1      -1.823  34.727   4.753  0.00  0.00    +0.002 C 
ATOM     21  C13 UNL     1      -2.759  35.556   3.860  0.00  0.00    +0.022 C 
ENDBRANCH   9  15
ENDBRANCH   4   7
BRANCH   1  23
ATOM     22  C1  UNL     1      -3.970  43.699  -2.022  0.00  0.00    +0.253 C 
ATOM     23  O1  UNL     1      -3.574  42.422  -2.513  0.00  0.00    -0.468 OA
ENDBRANCH   1  23
BRANCH   6  24
ATOM     24  O3  UNL     1      -1.509  40.645  -2.386  0.00  0.00    -0.472 OA
BRANCH  24  25
ATOM     25  C20 UNL     1      -0.696  39.784  -3.188  0.00  0.00    +0.206 C 
BRANCH  25  26
ATOM     26  C21 UNL     1      -1.297  39.584  -4.586  0.00  0.00    +0.051 C 
BRANCH  26  27
ATOM     27  C22 UNL     1      -0.316  40.011  -5.686  0.00  0.00    +0.051 C 
BRANCH  27  28
ATOM     28  C23 UNL     1      -0.699  41.348  -6.333  0.00  0.00    +0.206 C 
BRANCH  28  29
ATOM     29  O4  UNL     1      -1.817  41.945  -5.668  0.00  0.00    -0.475 OA
BRANCH  29  30
ATOM     30  C24 UNL     1      -2.079  43.320  -5.537  0.00  0.00    +0.139 A 
ATOM     31  C25 UNL     1      -1.652  43.955  -4.367  0.00  0.00    +0.037 A 
ATOM     32  C26 UNL     1      -1.882  45.320  -4.169  0.00  0.00    +0.006 A 
ATOM     33  C27 UNL     1      -2.549  46.077  -5.144  0.00  0.00    +0.040 A 
ATOM     34  C29 UNL     1      -2.982  45.442  -6.320  0.00  0.00    +0.006 A 
ATOM     35  C30 UNL     1      -2.752  44.076  -6.517  0.00  0.00    +0.037 A 
BRANCH  33  36
ATOM     36  C28 UNL     1      -2.758  47.527  -4.952  0.00  0.00    +0.208 A 
ATOM     37  N3  UNL     1      -3.788  48.226  -5.472  0.00  0.00    -0.106 NA
ATOM     38  N4  UNL     1      -3.579  49.476  -5.095  0.00  0.00    -0.021 NA
ATOM     39  N5  UNL     1      -2.469  49.531  -4.379  0.00  0.00    -0.021 NA
ATOM     40  N6  UNL     1      -1.918  48.334  -4.272  0.00  0.00    -0.106 NA
ENDBRANCH  33  36
ENDBRANCH  29  30
ENDBRANCH  28  29
ENDBRANCH  27  28
ENDBRANCH  26  27
ENDBRANCH  25  26
ENDBRANCH  24  25
ENDBRANCH   6  24
TORSDOF 11
ENDMDL
MODEL 3
REMARK VINA RESULT:      -6.8      1.689      2.337
REMARK  Name = ./threeLigTest/pdb/l0c2.pdb
REMARK  11 active torsions:
REMARK  status: ('A' for Active; 'I' for Inactive)
REMARK    1  A    between atoms: O1_2  and  C2_3
REMARK    2  A    between atoms: C5_6  and  C6_7
REMARK    3  A    between atoms: N2_9  and  C7_10
REMARK    4  A    between atoms: C19_23  and  O3_24
REMARK    5  A    between atoms: O3_24  and  C20_25
REMARK    6  A    between atoms: C20_25  and  C21_26
REMARK    7  A    between atoms: C21_26  and  C22_27
REMARK    8  A    between atoms: C22_27  and  C23_28
REMARK    9  A    between atoms: C23_28  and  O4_29
REMARK   10  A    between atoms: O4_29  and  C24_30
REMARK   11  A    between atoms: C27_33  and  C28_34
REMARK                            x       y       z     vdW  Elec       q    Type
REMARK                         _______ _______ _______ _____ _____    ______ ____
ROOT
ATOM      1  C2  UNL     1      -2.376  42.988  -1.648  0.00  0.00    +0.172 A 
ATOM      2  C3  UNL     1      -1.591  42.375  -0.657  0.00  0.00    +0.040 A 
ATOM      3  C4  UNL     1      -1.668  40.998  -0.445  0.00  0.00    +0.005 A 
ATOM      4  C5  UNL     1      -2.538  40.196  -1.206  0.00  0.00    +0.019 A 
ATOM      5  C18 UNL     1      -3.331  40.821  -2.187  0.00  0.00    +0.041 A 
ATOM      6  C19 UNL     1      -3.242  42.206  -2.423  0.00  0.00    +0.172 A 
ENDROOT
BRANCH   4   7
ATOM      7  C6  UNL     1      -2.590  38.722  -0.950  0.00  0.00    +0.084 C 
ATOM      8  N1  UNL     1      -3.326  38.247   0.011  0.00  0.00    -0.180 NA
ATOM      9  N2  UNL     1      -3.239  36.858   0.083  0.00  0.00    -0.183 N 
ATOM     10  C14 UNL     1      -2.339  36.437  -0.925  0.00  0.00    +0.249 C 
ATOM     11  O2  UNL     1      -2.004  35.238  -1.121  0.00  0.00    -0.273 OA
ATOM     12  C15 UNL     1      -1.828  37.616  -1.689  0.00  0.00    +0.107 C 
ATOM     13  C16 UNL     1      -0.307  37.713  -1.491  0.00  0.00    +0.015 C 
ATOM     14  C17 UNL     1      -2.235  37.486  -3.165  0.00  0.00    +0.015 C 
BRANCH   9  15
ATOM     15  C7  UNL     1      -3.744  36.084   1.222  0.00  0.00    +0.099 C 
ATOM     16  C8  UNL     1      -2.668  35.977   2.337  0.00  0.00    +0.022 C 
ATOM     17  C9  UNL     1      -2.887  36.847   3.589  0.00  0.00    +0.002 C 
ATOM     18  C10 UNL     1      -3.892  36.229   4.572  0.00  0.00    +0.000 C 
ATOM     19  C11 UNL     1      -5.353  36.480   4.184  0.00  0.00    +0.000 C 
ATOM     20  C12 UNL     1      -5.739  35.864   2.833  0.00  0.00    +0.002 C 
ATOM     21  C13 UNL     1      -5.126  36.626   1.647  0.00  0.00    +0.022 C 
ENDBRANCH   9  15
ENDBRANCH   4   7
BRANCH   1  23
ATOM     22  C1  UNL     1      -1.150  45.166  -1.766  0.00  0.00    +0.253 C 
ATOM     23  O1  UNL     1      -2.323  44.369  -1.894  0.00  0.00    -0.468 OA
ENDBRANCH   1  23
BRANCH   6  24
ATOM     24  O3  UNL     1      -4.001  42.851  -3.416  0.00  0.00    -0.472 OA
BRANCH  24  25
ATOM     25  C20 UNL     1      -3.522  43.850  -4.320  0.00  0.00    +0.206 C 
BRANCH  25  26
ATOM     26  C21 UNL     1      -2.501  43.272  -5.310  0.00  0.00    +0.051 C 
BRANCH  26  27
ATOM     27  C22 UNL     1      -2.141  44.285  -6.404  0.00  0.00    +0.051 C 
BRANCH  27  28
ATOM     28  C23 UNL     1      -3.279  45.274  -6.692  0.00  0.00    +0.206 C 
BRANCH  28  29
ATOM     29  O4  UNL     1      -2.790  46.617  -6.776  0.00  0.00    -0.475 OA
BRANCH  29  30
ATOM     30  C24 UNL     1      -3.234  47.719  -6.026  0.00  0.00    +0.139 A 
ATOM     31  C25 UNL     1      -4.585  47.759  -5.666  0.00  0.00    +0.037 A 
ATOM     32  C26 UNL     1      -5.096  48.827  -4.923  0.00  0.00    +0.006 A 
ATOM     33  C27 UNL     1      -4.260  49.883  -4.528  0.00  0.00    +0.040 A 
ATOM     34  C29 UNL     1      -2.903  49.848  -4.891  0.00  0.00    +0.006 A 
ATOM     35  C30 UNL     1      -2.393  48.779  -5.634  0.00  0.00    +0.037 A 
BRANCH  33  36
ATOM     36  C28 UNL     1      -4.792  50.992  -3.710  0.00  0.00    +0.208 A 
ATOM     37  N3  UNL     1      -6.070  51.087  -3.290  0.00  0.00    -0.106 NA
ATOM     38  N4  UNL     1      -6.131  52.232  -2.631  0.00  0.00    -0.021 NA
ATOM     39  N5  UNL     1      -4.940  52.806  -2.653  0.00  0.00    -0.021 NA
ATOM     40  N6  UNL     1      -4.074  52.067  -3.326  0.00  0.00    -0.106 NA
ENDBRANCH  33  36
ENDBRANCH  29  30
ENDBRANCH  28  29
ENDBRANCH  27  28
ENDBRANCH  26  27
ENDBRANCH  25  26
ENDBRANCH  24  25
ENDBRANCH   6  24
TORSDOF 11
ENDMDL
MODEL 4
REMARK VINA RESULT:      -6.2      2.278      3.277
REMARK  Name = ./threeLigTest/pdb/l0c2.pdb
REMARK  11 active torsions:
REMARK  status: ('A' for Active; 'I' for Inactive)
REMARK    1  A    between atoms: O1_2  and  C2_3
REMARK    2  A    between atoms: C5_6  and  C6_7
REMARK    3  A    between atoms: N2_9  and  C7_10
REMARK    4  A    between atoms: C19_23  and  O3_24
REMARK    5  A    between atoms: O3_24  and  C20_25
REMARK    6  A    between atoms: C20_25  and  C21_26
REMARK    7  A    between atoms: C21_26  and  C22_27
REMARK    8  A    between atoms: C22_27  and  C23_28
REMARK    9  A    between atoms: C23_28  and  O4_29
REMARK   10  A    between atoms: O4_29  and  C24_30
REMARK   11  A    between atoms: C27_33  and  C28_34
REMARK                            x       y       z     vdW  Elec       q    Type
REMARK                         _______ _______ _______ _____ _____    ______ ____
ROOT
ATOM      1  C2  UNL     1      -2.379  43.028  -1.641  0.00  0.00    +0.172 A 
ATOM      2  C3  UNL     1      -1.579  42.477  -0.625  0.00  0.00    +0.040 A 
ATOM      3  C4  UNL     1      -1.595  41.104  -0.379  0.00  0.00    +0.005 A 
ATOM      4  C5  UNL     1      -2.418  40.244  -1.129  0.00  0.00    +0.019 A 
ATOM      5  C18 UNL     1      -3.225  40.806  -2.134  0.00  0.00    +0.041 A 
ATOM      6  C19 UNL     1      -3.198  42.187  -2.405  0.00  0.00    +0.172 A 
ENDROOT
BRANCH   4   7
ATOM      7  C6  UNL     1      -2.404  38.776  -0.836  0.00  0.00    +0.084 C 
ATOM      8  N1  UNL     1      -1.821  38.324   0.235  0.00  0.00    -0.180 NA
ATOM      9  N2  UNL     1      -1.921  36.937   0.326  0.00  0.00    -0.183 N 
ATOM     10  C14 UNL     1      -2.619  36.487  -0.820  0.00  0.00    +0.249 C 
ATOM     11  O2  UNL     1      -2.859  35.276  -1.073  0.00  0.00    -0.273 OA
ATOM     12  C15 UNL     1      -2.994  37.646  -1.687  0.00  0.00    +0.107 C 
ATOM     13  C16 UNL     1      -2.289  37.498  -3.044  0.00  0.00    +0.015 C 
ATOM     14  C17 UNL     1      -4.524  37.719  -1.810  0.00  0.00    +0.015 C 
BRANCH   9  15
ATOM     15  C7  UNL     1      -1.137  36.140   1.275  0.00  0.00    +0.099 C 
ATOM     16  C8  UNL     1       0.250  35.777   0.678  0.00  0.00    +0.022 C 
ATOM     17  C9  UNL     1       1.461  36.547   1.234  0.00  0.00    +0.002 C 
ATOM     18  C10 UNL     1       1.953  35.990   2.578  0.00  0.00    +0.000 C 
ATOM     19  C11 UNL     1       1.133  36.484   3.775  0.00  0.00    +0.000 C 
ATOM     20  C12 UNL     1      -0.339  36.058   3.721  0.00  0.00    +0.002 C 
ATOM     21  C13 UNL     1      -1.132  36.832   2.656  0.00  0.00    +0.022 C 
ENDBRANCH   9  15
ENDBRANCH   4   7
BRANCH   1  23
ATOM     22  C1  UNL     1      -1.251  45.256  -1.810  0.00  0.00    +0.253 C 
ATOM     23  O1  UNL     1      -2.387  44.403  -1.922  0.00  0.00    -0.468 OA
ENDBRANCH   1  23
BRANCH   6  24
ATOM     24  O3  UNL     1      -3.973  42.770  -3.423  0.00  0.00    -0.472 OA
BRANCH  24  25
ATOM     25  C20 UNL     1      -3.534  43.779  -4.338  0.00  0.00    +0.206 C 
BRANCH  25  26
ATOM     26  C21 UNL     1      -2.479  43.235  -5.311  0.00  0.00    +0.051 C 
BRANCH  26  27
ATOM     27  C22 UNL     1      -2.135  44.261  -6.398  0.00  0.00    +0.051 C 
BRANCH  27  28
ATOM     28  C23 UNL     1      -3.284  45.239  -6.675  0.00  0.00    +0.206 C 
BRANCH  28  29
ATOM     29  O4  UNL     1      -2.807  46.585  -6.775  0.00  0.00    -0.475 OA
BRANCH  29  30
ATOM     30  C24 UNL     1      -3.251  47.689  -6.027  0.00  0.00    +0.139 A 
ATOM     31  C25 UNL     1      -4.600  47.727  -5.660  0.00  0.00    +0.037 A 
ATOM     32  C26 UNL     1      -5.109  48.797  -4.919  0.00  0.00    +0.006 A 
ATOM     33  C27 UNL     1      -4.274  49.856  -4.532  0.00  0.00    +0.040 A 
ATOM     34  C29 UNL     1      -2.919  49.824  -4.902  0.00  0.00    +0.006 A 
ATOM     35  C30 UNL     1      -2.410  48.752  -5.643  0.00  0.00    +0.037 A 
BRANCH  33  36
ATOM     36  C28 UNL     1      -4.804  50.968  -3.716  0.00  0.00    +0.208 A 
ATOM     37  N3  UNL     1      -6.081  51.062  -3.292  0.00  0.00    -0.106 NA
ATOM     38  N4  UNL     1      -6.141  52.209  -2.636  0.00  0.00    -0.021 NA
ATOM     39  N5  UNL     1      -4.951  52.784  -2.663  0.00  0.00    -0.021 NA
ATOM     40  N6  UNL     1      -4.086  52.045  -3.337  0.00  0.00    -0.106 NA
ENDBRANCH  33  36
ENDBRANCH  29  30
ENDBRANCH  28  29
ENDBRANCH  27  28
ENDBRANCH  26  27
ENDBRANCH  25  26
ENDBRANCH  24  25
ENDBRANCH   6  24
TORSDOF 11
ENDMDL
MODEL 5
REMARK VINA RESULT:      -5.8      2.570      4.456
REMARK  Name = ./threeLigTest/pdb/l0c2.pdb
REMARK  11 active torsions:
REMARK  status: ('A' for Active; 'I' for Inactive)
REMARK    1  A    between atoms: O1_2  and  C2_3
REMARK    2  A    between atoms: C5_6  and  C6_7
REMARK    3  A    between atoms: N2_9  and  C7_10
REMARK    4  A    between atoms: C19_23  and  O3_24
REMARK    5  A    between atoms: O3_24  and  C20_25
REMARK    6  A    between atoms: C20_25  and  C21_26
REMARK    7  A    between atoms: C21_26  and  C22_27
REMARK    8  A    between atoms: C22_27  and  C23_28
REMARK    9  A    between atoms: C23_28  and  O4_29
REMARK   10  A    between atoms: O4_29  and  C24_30
REMARK   11  A    between atoms: C27_33  and  C28_34
REMARK                            x       y       z     vdW  Elec       q    Type
REMARK                         _______ _______ _______ _____ _____    ______ ____
ROOT
ATOM      1  C2  UNL     1      -2.196  42.977  -1.586  0.00  0.00    +0.172 A 
ATOM      2  C3  UNL     1      -1.360  42.298  -0.685  0.00  0.00    +0.040 A 
ATOM      3  C4  UNL     1      -1.422  40.909  -0.570  0.00  0.00    +0.005 A 
ATOM      4  C5  UNL     1      -2.329  40.159  -1.342  0.00  0.00    +0.019 A 
ATOM      5  C18 UNL     1      -3.172  40.849  -2.233  0.00  0.00    +0.041 A 
ATOM      6  C19 UNL     1      -3.099  42.248  -2.371  0.00  0.00    +0.172 A 
ENDROOT
BRANCH   4   7
ATOM      7  C6  UNL     1      -2.363  38.670  -1.193  0.00  0.00    +0.084 C 
ATOM      8  N1  UNL     1      -1.257  37.987  -1.157  0.00  0.00    -0.180 NA
ATOM      9  N2  UNL     1      -1.504  36.623  -1.011  0.00  0.00    -0.183 N 
ATOM     10  C14 UNL     1      -2.908  36.447  -0.977  0.00  0.00    +0.249 C 
ATOM     11  O2  UNL     1      -3.480  35.328  -0.886  0.00  0.00    -0.273 OA
ATOM     12  C15 UNL     1      -3.598  37.767  -1.098  0.00  0.00    +0.107 C 
ATOM     13  C16 UNL     1      -4.435  37.772  -2.388  0.00  0.00    +0.015 C 
ATOM     14  C17 UNL     1      -4.438  38.024   0.163  0.00  0.00    +0.015 C 
BRANCH   9  15
ATOM     15  C7  UNL     1      -0.471  35.600  -1.206  0.00  0.00    +0.099 C 
ATOM     16  C8  UNL     1      -0.394  35.170  -2.697  0.00  0.00    +0.022 C 
ATOM     17  C9  UNL     1       0.809  35.694  -3.502  0.00  0.00    +0.002 C 
ATOM     18  C10 UNL     1       2.088  34.880  -3.255  0.00  0.00    +0.000 C 
ATOM     19  C11 UNL     1       2.820  35.276  -1.968  0.00  0.00    +0.000 C 
ATOM     20  C12 UNL     1       1.991  35.044  -0.700  0.00  0.00    +0.002 C 
ATOM     21  C13 UNL     1       0.850  36.063  -0.554  0.00  0.00    +0.022 C 
ENDBRANCH   9  15
ENDBRANCH   4   7
BRANCH   1  23
ATOM     22  C1  UNL     1      -1.103  45.205  -1.265  0.00  0.00    +0.253 C 
ATOM     23  O1  UNL     1      -2.160  44.372  -1.733  0.00  0.00    -0.468 OA
ENDBRANCH   1  23
BRANCH   6  24
ATOM     24  O3  UNL     1      -3.910  42.959  -3.274  0.00  0.00    -0.472 OA
BRANCH  24  25
ATOM     25  C20 UNL     1      -3.464  43.967  -4.185  0.00  0.00    +0.206 C 
BRANCH  25  26
ATOM     26  C21 UNL     1      -3.004  43.359  -5.517  0.00  0.00    +0.051 C 
BRANCH  26  27
ATOM     27  C22 UNL     1      -2.359  44.414  -6.425  0.00  0.00    +0.051 C 
BRANCH  27  28
ATOM     28  C23 UNL     1      -3.345  45.508  -6.854  0.00  0.00    +0.206 C 
BRANCH  28  29
ATOM     29  O4  UNL     1      -2.755  46.809  -6.747  0.00  0.00    -0.475 OA
BRANCH  29  30
ATOM     30  C24 UNL     1      -3.237  47.888  -5.988  0.00  0.00    +0.139 A 
ATOM     31  C25 UNL     1      -4.583  47.867  -5.608  0.00  0.00    +0.037 A 
ATOM     32  C26 UNL     1      -5.130  48.910  -4.855  0.00  0.00    +0.006 A 
ATOM     33  C27 UNL     1      -4.336  50.001  -4.469  0.00  0.00    +0.040 A 
ATOM     34  C29 UNL     1      -2.984  50.028  -4.852  0.00  0.00    +0.006 A 
ATOM     35  C30 UNL     1      -2.439  48.984  -5.605  0.00  0.00    +0.037 A 
BRANCH  33  36
ATOM     36  C28 UNL     1      -4.905  51.084  -3.641  0.00  0.00    +0.208 A 
ATOM     37  N3  UNL     1      -6.197  51.155  -3.259  0.00  0.00    -0.106 NA
ATOM     38  N4  UNL     1      -6.290  52.283  -2.573  0.00  0.00    -0.021 NA
ATOM     39  N5  UNL     1      -5.105  52.868  -2.542  0.00  0.00    -0.021 NA
ATOM     40  N6  UNL     1      -4.211  52.155  -3.207  0.00  0.00    -0.106 NA
ENDBRANCH  33  36
ENDBRANCH  29  30
ENDBRANCH  28  29
ENDBRANCH  27  28
ENDBRANCH  26  27
ENDBRANCH  25  26
ENDBRANCH  24  25
ENDBRANCH   6  24
TORSDOF 11
ENDMDL
