MODEL 1
REMARK VINA RESULT:      -9.9      0.000      0.000
REMARK  Name = ./threeLigTest/pdb/l1c0.pdb
REMARK  11 active torsions:
REMARK  status: ('A' for Active; 'I' for Inactive)
REMARK    1  A    between atoms: O1_2  and  C2_3
REMARK    2  A    between atoms: C5_6  and  C6_7
REMARK    3  A    between atoms: N2_9  and  C7_10
REMARK    4  A    between atoms: C22_26  and  O3_27
REMARK    5  A    between atoms: O3_27  and  C23_28
REMARK    6  A    between atoms: C23_28  and  C24_29
REMARK    7  A    between atoms: C24_29  and  C25_30
REMARK    8  A    between atoms: C25_30  and  C26_31
REMARK    9  A    between atoms: C26_31  and  O4_32
REMARK   10  A    between atoms: O4_32  and  C27_33
REMARK   11  A    between atoms: C30_36  and  C31_37
REMARK                            x       y       z     vdW  Elec       q    Type
REMARK                         _______ _______ _______ _____ _____    ______ ____
ROOT
ATOM      1  C2  UNL     1       0.381  38.284  -3.312  0.00  0.00    +0.172 A 
ATOM      2  C3  UNL     1       0.268  37.204  -2.414  0.00  0.00    +0.040 A 
ATOM      3  C4  UNL     1      -0.929  36.975  -1.730  0.00  0.00    +0.005 A 
ATOM      4  C5  UNL     1      -2.012  37.852  -1.887  0.00  0.00    +0.018 A 
ATOM      5  C21 UNL     1      -1.901  38.924  -2.782  0.00  0.00    +0.041 A 
ATOM      6  C22 UNL     1      -0.716  39.134  -3.514  0.00  0.00    +0.172 A 
ENDROOT
BRANCH   4   7
ATOM      7  C6  UNL     1      -3.312  37.590  -1.233  0.00  0.00    +0.077 C 
ATOM      8  N1  UNL     1      -3.983  38.629  -0.820  0.00  0.00    -0.180 NA
ATOM      9  N2  UNL     1      -5.278  38.558  -0.271  0.00  0.00    -0.183 N 
ATOM     10  C14 UNL     1      -5.817  37.270   0.065  0.00  0.00    +0.244 C 
ATOM     11  O2  UNL     1      -7.005  37.144   0.464  0.00  0.00    -0.273 OA
ATOM     12  C15 UNL     1      -4.895  36.088   0.045  0.00  0.00    +0.089 C 
ATOM     13  C16 UNL     1      -4.112  36.045   1.384  0.00  0.00    +0.035 C 
ATOM     14  C17 UNL     1      -2.819  35.276   1.324  0.00  0.00    -0.030 C 
ATOM     15  C18 UNL     1      -2.241  34.913   0.173  0.00  0.00    -0.030 C 
ATOM     16  C19 UNL     1      -2.959  35.021  -1.140  0.00  0.00    +0.032 C 
ATOM     17  C20 UNL     1      -3.954  36.205  -1.177  0.00  0.00    +0.055 C 
BRANCH   9  18
ATOM     18  C7  UNL     1      -5.917  39.797   0.202  0.00  0.00    +0.099 C 
ATOM     19  C8  UNL     1      -7.443  39.742  -0.067  0.00  0.00    +0.022 C 
ATOM     20  C9  UNL     1      -8.311  40.576   0.893  0.00  0.00    +0.002 C 
ATOM     21  C10 UNL     1      -7.757  41.949   1.307  0.00  0.00    +0.000 C 
ATOM     22  C11 UNL     1      -7.029  42.706   0.186  0.00  0.00    +0.000 C 
ATOM     23  C12 UNL     1      -5.536  42.348   0.128  0.00  0.00    +0.002 C 
ATOM     24  C13 UNL     1      -5.260  40.989  -0.526  0.00  0.00    +0.022 C 
ENDBRANCH   9  18
ENDBRANCH   4   7
BRANCH   1  26
ATOM     25  C1  UNL     1       1.968  37.788  -5.183  0.00  0.00    +0.253 C 
ATOM     26  O1  UNL     1       1.559  38.528  -4.039  0.00  0.00    -0.468 OA
ENDBRANCH   1  26
BRANCH   6  27
ATOM     27  O3  UNL     1      -0.602  40.161  -4.466  0.00  0.00    -0.472 OA
BRANCH  27  28
ATOM     28  C23 UNL     1      -0.939  40.039  -5.850  0.00  0.00    +0.206 C 
BRANCH  28  29
ATOM     29  C24 UNL     1      -0.415  41.253  -6.634  0.00  0.00    +0.051 C 
BRANCH  29  30
ATOM     30  C25 UNL     1      -1.226  42.535  -6.386  0.00  0.00    +0.051 C 
BRANCH  30  31
ATOM     31  C26 UNL     1      -2.389  42.338  -5.409  0.00  0.00    +0.206 C 
BRANCH  31  32
ATOM     32  O4  UNL     1      -2.184  43.116  -4.231  0.00  0.00    -0.475 OA
BRANCH  32  33
ATOM     33  C27 UNL     1      -2.133  44.517  -4.203  0.00  0.00    +0.139 A 
ATOM     34  C28 UNL     1      -3.062  45.230  -4.965  0.00  0.00    +0.037 A 
ATOM     35  C29 UNL     1      -3.065  46.628  -4.960  0.00  0.00    +0.006 A 
ATOM     36  C30 UNL     1      -2.129  47.342  -4.189  0.00  0.00    +0.040 A 
ATOM     37  C32 UNL     1      -1.195  46.623  -3.424  0.00  0.00    +0.006 A 
ATOM     38  C33 UNL     1      -1.193  45.224  -3.432  0.00  0.00    +0.037 A 
BRANCH  36  39
ATOM     39  C31 UNL     1      -2.131  48.828  -4.177  0.00  0.00    +0.208 A 
ATOM     40  N3  UNL     1      -2.956  49.614  -4.899  0.00  0.00    -0.106 NA
ATOM     41  N4  UNL     1      -2.647  50.863  -4.587  0.00  0.00    -0.021 NA
ATOM     42  N5  UNL     1      -1.662  50.858  -3.700  0.00  0.00    -0.021 NA
ATOM     43  N6  UNL     1      -1.322  49.607  -3.432  0.00  0.00    -0.106 NA
ENDBRANCH  36  39
ENDBRANCH  32  33
ENDBRANCH  31  32
ENDBRANCH  30  31
ENDBRANCH  29  30
ENDBRANCH  28  29
ENDBRANCH  27  28
ENDBRANCH   6  27
TORSDOF 11
ENDMDL
MODEL 2
REMARK VINA RESULT:      -9.3      3.559      4.518
REMARK  Name = ./threeLigTest/pdb/l1c0.pdb
REMARK  11 active torsions:
REMARK  status: ('A' for Active; 'I' for Inactive)
REMARK    1  A    between atoms: O1_2  and  C2_3
REMARK    2  A    between atoms: C5_6  and  C6_7
REMARK    3  A    between atoms: N2_9  and  C7_10
REMARK    4  A    between atoms: C22_26  and  O3_27
REMARK    5  A    between atoms: O3_27  and  C23_28
REMARK    6  A    between atoms: C23_28  and  C24_29
REMARK    7  A    between atoms: C24_29  and  C25_30
REMARK    8  A    between atoms: C25_30  and  C26_31
REMARK    9  A    between atoms: C26_31  and  O4_32
REMARK   10  A    between atoms: O4_32  and  C27_33
REMARK   11  A    between atoms: C30_36  and  C31_37
REMARK                            x       y       z     vdW  Elec       q    Type
REMARK                         _______ _______ _______ _____ _____    ______ ____
ROOT
ATOM      1  C2  UNL     1       0.130  39.517  -5.163  0.00  0.00    +0.172 A 
ATOM      2  C3  UNL     1       0.438  38.163  -4.927  0.00  0.00    +0.040 A 
ATOM      3  C4  UNL     1      -0.200  37.460  -3.901  0.00  0.00    +0.005 A 
ATOM      4  C5  UNL     1      -1.112  38.112  -3.059  0.00  0.00    +0.018 A 
ATOM      5  C21 UNL     1      -1.422  39.458  -3.295  0.00  0.00    +0.041 A 
ATOM      6  C22 UNL     1      -0.822  40.160  -4.358  0.00  0.00    +0.172 A 
ENDROOT
BRANCH   4   7
ATOM      7  C6  UNL     1      -1.855  37.373  -2.015  0.00  0.00    +0.077 C 
ATOM      8  N1  UNL     1      -2.941  37.932  -1.559  0.00  0.00    -0.180 NA
ATOM      9  N2  UNL     1      -3.813  37.315  -0.640  0.00  0.00    -0.183 N 
ATOM     10  C14 UNL     1      -3.392  36.105   0.008  0.00  0.00    +0.244 C 
ATOM     11  O2  UNL     1      -4.172  35.463   0.759  0.00  0.00    -0.273 OA
ATOM     12  C15 UNL     1      -1.960  35.686  -0.134  0.00  0.00    +0.089 C 
ATOM     13  C16 UNL     1      -1.107  36.468   0.900  0.00  0.00    +0.035 C 
ATOM     14  C17 UNL     1       0.355  36.566   0.554  0.00  0.00    -0.030 C 
ATOM     15  C18 UNL     1       0.837  36.274  -0.660  0.00  0.00    -0.030 C 
ATOM     16  C19 UNL     1      -0.001  35.587  -1.698  0.00  0.00    +0.032 C 
ATOM     17  C20 UNL     1      -1.500  35.951  -1.588  0.00  0.00    +0.055 C 
BRANCH   9  18
ATOM     18  C7  UNL     1      -4.986  38.065  -0.163  0.00  0.00    +0.099 C 
ATOM     19  C8  UNL     1      -6.231  37.141  -0.139  0.00  0.00    +0.022 C 
ATOM     20  C9  UNL     1      -7.311  37.519   0.892  0.00  0.00    +0.002 C 
ATOM     21  C10 UNL     1      -7.592  39.020   1.078  0.00  0.00    +0.000 C 
ATOM     22  C11 UNL     1      -7.544  39.842  -0.219  0.00  0.00    +0.000 C 
ATOM     23  C12 UNL     1      -6.127  40.352  -0.523  0.00  0.00    +0.002 C 
ATOM     24  C13 UNL     1      -5.202  39.274  -1.100  0.00  0.00    +0.022 C 
ENDBRANCH   9  18
ENDBRANCH   4   7
BRANCH   1  26
ATOM     25  C1  UNL     1       0.396  40.110  -7.580  0.00  0.00    +0.253 C 
ATOM     26  O1  UNL     1       0.729  40.248  -6.203  0.00  0.00    -0.468 OA
ENDBRANCH   1  26
BRANCH   6  27
ATOM     27  O3  UNL     1      -1.163  41.491  -4.657  0.00  0.00    -0.472 OA
BRANCH  27  28
ATOM     28  C23 UNL     1      -1.938  41.905  -5.784  0.00  0.00    +0.206 C 
BRANCH  28  29
ATOM     29  C24 UNL     1      -1.601  43.358  -6.157  0.00  0.00    +0.051 C 
BRANCH  29  30
ATOM     30  C25 UNL     1      -2.843  44.253  -6.305  0.00  0.00    +0.051 C 
BRANCH  30  31
ATOM     31  C26 UNL     1      -2.815  45.486  -5.397  0.00  0.00    +0.206 C 
BRANCH  31  32
ATOM     32  O4  UNL     1      -3.512  45.223  -4.181  0.00  0.00    -0.475 OA
BRANCH  32  33
ATOM     33  C27 UNL     1      -3.137  44.249  -3.245  0.00  0.00    +0.139 A 
ATOM     34  C28 UNL     1      -1.951  44.438  -2.531  0.00  0.00    +0.037 A 
ATOM     35  C29 UNL     1      -1.539  43.505  -1.574  0.00  0.00    +0.006 A 
ATOM     36  C30 UNL     1      -2.311  42.357  -1.316  0.00  0.00    +0.040 A 
ATOM     37  C32 UNL     1      -3.503  42.169  -2.036  0.00  0.00    +0.006 A 
ATOM     38  C33 UNL     1      -3.912  43.103  -2.994  0.00  0.00    +0.037 A 
BRANCH  36  39
ATOM     39  C31 UNL     1      -1.879  41.365  -0.297  0.00  0.00    +0.208 A 
ATOM     40  N3  UNL     1      -2.670  40.828   0.654  0.00  0.00    -0.106 NA
ATOM     41  N4  UNL     1      -1.910  39.984   1.336  0.00  0.00    -0.021 NA
ATOM     42  N5  UNL     1      -0.686  39.994   0.828  0.00  0.00    -0.021 NA
ATOM     43  N6  UNL     1      -0.640  40.846  -0.185  0.00  0.00    -0.106 NA
ENDBRANCH  36  39
ENDBRANCH  32  33
ENDBRANCH  31  32
ENDBRANCH  30  31
ENDBRANCH  29  30
ENDBRANCH  28  29
ENDBRANCH  27  28
ENDBRANCH   6  27
TORSDOF 11
ENDMDL
MODEL 3
REMARK VINA RESULT:      -9.2      1.816      2.536
REMARK  Name = ./threeLigTest/pdb/l1c0.pdb
REMARK  11 active torsions:
REMARK  status: ('A' for Active; 'I' for Inactive)
REMARK    1  A    between atoms: O1_2  and  C2_3
REMARK    2  A    between atoms: C5_6  and  C6_7
REMARK    3  A    between atoms: N2_9  and  C7_10
REMARK    4  A    between atoms: C22_26  and  O3_27
REMARK    5  A    between atoms: O3_27  and  C23_28
REMARK    6  A    between atoms: C23_28  and  C24_29
REMARK    7  A    between atoms: C24_29  and  C25_30
REMARK    8  A    between atoms: C25_30  and  C26_31
REMARK    9  A    between atoms: C26_31  and  O4_32
REMARK   10  A    between atoms: O4_32  and  C27_33
REMARK   11  A    between atoms: C30_36  and  C31_37
REMARK                            x       y       z     vdW  Elec       q    Type
REMARK                         _______ _______ _______ _____ _____    ______ ____
ROOT
ATOM      1  C2  UNL     1      -0.454  39.641  -4.739  0.00  0.00    +0.172 A 
ATOM      2  C3  UNL     1      -0.519  38.265  -4.447  0.00  0.00    +0.040 A 
ATOM      3  C4  UNL     1      -1.400  37.789  -3.471  0.00  0.00    +0.005 A 
ATOM      4  C5  UNL     1      -2.189  38.684  -2.734  0.00  0.00    +0.018 A 
ATOM      5  C21 UNL     1      -2.127  40.054  -3.027  0.00  0.00    +0.041 A 
ATOM      6  C22 UNL     1      -1.279  40.536  -4.042  0.00  0.00    +0.172 A 
ENDROOT
BRANCH   4   7
ATOM      7  C6  UNL     1      -3.182  38.201  -1.750  0.00  0.00    +0.077 C 
ATOM      8  N1  UNL     1      -3.985  39.091  -1.240  0.00  0.00    -0.180 NA
ATOM      9  N2  UNL     1      -5.049  38.780  -0.370  0.00  0.00    -0.183 N 
ATOM     10  C14 UNL     1      -5.134  37.452   0.170  0.00  0.00    +0.244 C 
ATOM     11  O2  UNL     1      -6.118  37.096   0.870  0.00  0.00    -0.273 OA
ATOM     12  C15 UNL     1      -3.965  36.534  -0.019  0.00  0.00    +0.089 C 
ATOM     13  C16 UNL     1      -2.905  36.846   1.072  0.00  0.00    +0.035 C 
ATOM     14  C17 UNL     1      -1.507  36.410   0.723  0.00  0.00    -0.030 C 
ATOM     15  C18 UNL     1      -1.142  36.056  -0.514  0.00  0.00    -0.030 C 
ATOM     16  C19 UNL     1      -2.152  35.825  -1.600  0.00  0.00    +0.032 C 
ATOM     17  C20 UNL     1      -3.403  36.720  -1.448  0.00  0.00    +0.055 C 
BRANCH   9  18
ATOM     18  C7  UNL     1      -5.862  39.878   0.178  0.00  0.00    +0.099 C 
ATOM     19  C8  UNL     1      -7.360  39.639  -0.144  0.00  0.00    +0.022 C 
ATOM     20  C9  UNL     1      -8.354  40.266   0.851  0.00  0.00    +0.002 C 
ATOM     21  C10 UNL     1      -8.003  41.664   1.388  0.00  0.00    +0.000 C 
ATOM     22  C11 UNL     1      -7.363  42.602   0.354  0.00  0.00    +0.000 C 
ATOM     23  C12 UNL     1      -5.834  42.455   0.315  0.00  0.00    +0.002 C 
ATOM     24  C13 UNL     1      -5.360  41.204  -0.435  0.00  0.00    +0.022 C 
ENDBRANCH   9  18
ENDBRANCH   4   7
BRANCH   1  26
ATOM     25  C1  UNL     1       0.145  40.073  -7.130  0.00  0.00    +0.253 C 
ATOM     26  O1  UNL     1       0.398  40.153  -5.732  0.00  0.00    -0.468 OA
ENDBRANCH   1  26
BRANCH   6  27
ATOM     27  O3  UNL     1      -1.247  41.895  -4.400  0.00  0.00    -0.472 OA
BRANCH  27  28
ATOM     28  C23 UNL     1      -1.865  42.953  -3.664  0.00  0.00    +0.206 C 
BRANCH  28  29
ATOM     29  C24 UNL     1      -3.013  43.569  -4.479  0.00  0.00    +0.051 C 
BRANCH  29  30
ATOM     30  C25 UNL     1      -2.722  45.002  -4.955  0.00  0.00    +0.051 C 
BRANCH  30  31
ATOM     31  C26 UNL     1      -2.991  45.212  -6.449  0.00  0.00    +0.206 C 
BRANCH  31  32
ATOM     32  O4  UNL     1      -2.773  46.575  -6.805  0.00  0.00    -0.475 OA
BRANCH  32  33
ATOM     33  C27 UNL     1      -3.232  47.674  -6.064  0.00  0.00    +0.139 A 
ATOM     34  C28 UNL     1      -4.595  47.747  -5.763  0.00  0.00    +0.037 A 
ATOM     35  C29 UNL     1      -5.103  48.812  -5.013  0.00  0.00    +0.006 A 
ATOM     36  C30 UNL     1      -4.250  49.832  -4.552  0.00  0.00    +0.040 A 
ATOM     37  C32 UNL     1      -2.880  49.756  -4.856  0.00  0.00    +0.006 A 
ATOM     38  C33 UNL     1      -2.375  48.690  -5.608  0.00  0.00    +0.037 A 
BRANCH  36  39
ATOM     39  C31 UNL     1      -4.785  50.964  -3.751  0.00  0.00    +0.208 A 
ATOM     40  N3  UNL     1      -6.055  51.080  -3.315  0.00  0.00    -0.106 NA
ATOM     41  N4  UNL     1      -6.111  52.212  -2.629  0.00  0.00    -0.021 NA
ATOM     42  N5  UNL     1      -4.915  52.784  -2.637  0.00  0.00    -0.021 NA
ATOM     43  N6  UNL     1      -4.075  52.030  -3.330  0.00  0.00    -0.106 NA
ENDBRANCH  36  39
ENDBRANCH  32  33
ENDBRANCH  31  32
ENDBRANCH  30  31
ENDBRANCH  29  30
ENDBRANCH  28  29
ENDBRANCH  27  28
ENDBRANCH   6  27
TORSDOF 11
ENDMDL
