MODEL 1
REMARK VINA RESULT:      -7.6      0.000      0.000
REMARK  Name = ./threeLigTest/pdb/l0c4.pdb
REMARK  11 active torsions:
REMARK  status: ('A' for Active; 'I' for Inactive)
REMARK    1  A    between atoms: O1_2  and  C2_3
REMARK    2  A    between atoms: C5_6  and  C6_7
REMARK    3  A    between atoms: N2_9  and  C7_10
REMARK    4  A    between atoms: C19_23  and  O3_24
REMARK    5  A    between atoms: O3_24  and  C20_25
REMARK    6  A    between atoms: C20_25  and  C21_26
REMARK    7  A    between atoms: C21_26  and  C22_27
REMARK    8  A    between atoms: C22_27  and  C23_28
REMARK    9  A    between atoms: C23_28  and  O4_29
REMARK   10  A    between atoms: O4_29  and  C24_30
REMARK   11  A    between atoms: C27_33  and  C28_34
REMARK                            x       y       z     vdW  Elec       q    Type
REMARK                         _______ _______ _______ _____ _____    ______ ____
ROOT
ATOM      1  C2  UNL     1      -1.765  41.969  -1.941  0.00  0.00    +0.172 A 
ATOM      2  C3  UNL     1      -1.930  41.819  -0.554  0.00  0.00    +0.040 A 
ATOM      3  C4  UNL     1      -1.975  40.549   0.024  0.00  0.00    +0.005 A 
ATOM      4  C5  UNL     1      -1.861  39.393  -0.768  0.00  0.00    +0.019 A 
ATOM      5  C18 UNL     1      -1.720  39.552  -2.163  0.00  0.00    +0.041 A 
ATOM      6  C19 UNL     1      -1.664  40.830  -2.749  0.00  0.00    +0.172 A 
ENDROOT
BRANCH   4   7
ATOM      7  C6  UNL     1      -1.873  38.014  -0.188  0.00  0.00    +0.084 C 
ATOM      8  N1  UNL     1      -2.592  37.750   0.865  0.00  0.00    -0.180 NA
ATOM      9  N2  UNL     1      -2.469  36.415   1.240  0.00  0.00    -0.183 N 
ATOM     10  C14 UNL     1      -1.588  35.791   0.327  0.00  0.00    +0.249 C 
ATOM     11  O2  UNL     1      -1.246  34.579   0.387  0.00  0.00    -0.273 OA
ATOM     12  C15 UNL     1      -1.120  36.777  -0.694  0.00  0.00    +0.107 C 
ATOM     13  C16 UNL     1       0.407  36.927  -0.591  0.00  0.00    +0.015 C 
ATOM     14  C17 UNL     1      -1.586  36.319  -2.089  0.00  0.00    +0.015 C 
BRANCH   9  15
ATOM     15  C7  UNL     1      -3.180  35.821   2.377  0.00  0.00    +0.099 C 
ATOM     16  C8  UNL     1      -4.690  35.648   2.045  0.00  0.00    +0.022 C 
ATOM     17  C9  UNL     1      -5.662  36.613   2.746  0.00  0.00    +0.002 C 
ATOM     18  C10 UNL     1      -5.964  36.201   4.195  0.00  0.00    +0.000 C 
ATOM     19  C11 UNL     1      -4.885  36.643   5.190  0.00  0.00    +0.000 C 
ATOM     20  C12 UNL     1      -3.513  36.013   4.921  0.00  0.00    +0.002 C 
ATOM     21  C13 UNL     1      -2.840  36.596   3.668  0.00  0.00    +0.022 C 
ENDBRANCH   9  15
ENDBRANCH   4   7
BRANCH   1  23
ATOM     22  C1  UNL     1      -1.580  44.462  -1.849  0.00  0.00    +0.253 C 
ATOM     23  O1  UNL     1      -1.691  43.230  -2.553  0.00  0.00    -0.468 OA
ENDBRANCH   1  23
BRANCH   6  24
ATOM     24  O3  UNL     1      -1.491  41.013  -4.129  0.00  0.00    -0.472 OA
BRANCH  24  25
ATOM     25  C20 UNL     1      -0.861  40.078  -5.002  0.00  0.00    +0.206 C 
BRANCH  25  26
ATOM     26  C21 UNL     1      -0.816  40.637  -6.428  0.00  0.00    +0.051 C 
BRANCH  26  27
ATOM     27  C22 UNL     1      -0.926  42.173  -6.500  0.00  0.00    +0.051 C 
BRANCH  27  28
ATOM     28  C23 UNL     1      -2.274  42.715  -6.014  0.00  0.00    +0.206 C 
BRANCH  28  29
ATOM     29  O4  UNL     1      -2.692  43.796  -6.844  0.00  0.00    -0.475 OA
BRANCH  29  30
ATOM     30  C24 UNL     1      -2.863  45.116  -6.407  0.00  0.00    +0.139 A 
ATOM     31  C25 UNL     1      -3.271  46.149  -7.273  0.00  0.00    +0.037 A 
ATOM     32  C26 UNL     1      -3.422  47.452  -6.793  0.00  0.00    +0.006 A 
ATOM     33  C27 UNL     1      -3.160  47.751  -5.445  0.00  0.00    +0.040 A 
ATOM     34  C29 UNL     1      -2.754  46.718  -4.582  0.00  0.00    +0.006 A 
ATOM     35  C30 UNL     1      -2.611  45.412  -5.062  0.00  0.00    +0.037 A 
BRANCH  33  36
ATOM     36  C28 UNL     1      -3.310  49.134  -4.945  0.00  0.00    +0.208 A 
ATOM     37  N3  UNL     1      -2.346  50.077  -5.008  0.00  0.00    -0.106 NA
ATOM     38  N4  UNL     1      -2.883  51.153  -4.458  0.00  0.00    -0.021 NA
ATOM     39  N5  UNL     1      -4.117  50.871  -4.076  0.00  0.00    -0.021 NA
ATOM     40  N6  UNL     1      -4.425  49.619  -4.364  0.00  0.00    -0.106 NA
ENDBRANCH  33  36
ENDBRANCH  29  30
ENDBRANCH  28  29
ENDBRANCH  27  28
ENDBRANCH  26  27
ENDBRANCH  25  26
ENDBRANCH  24  25
ENDBRANCH   6  24
TORSDOF 11
ENDMDL
MODEL 2
REMARK VINA RESULT:      -7.5      4.215      6.195
REMARK  Name = ./threeLigTest/pdb/l0c4.pdb
REMARK  11 active torsions:
REMARK  status: ('A' for Active; 'I' for Inactive)
REMARK    1  A    between atoms: O1_2  and  C2_3
REMARK    2  A    between atoms: C5_6  and  C6_7
REMARK    3  A    between atoms: N2_9  and  C7_10
REMARK    4  A    between atoms: C19_23  and  O3_24
REMARK    5  A    between atoms: O3_24  and  C20_25
REMARK    6  A    between atoms: C20_25  and  C21_26
REMARK    7  A    between atoms: C21_26  and  C22_27
REMARK    8  A    between atoms: C22_27  and  C23_28
REMARK    9  A    between atoms: C23_28  and  O4_29
REMARK   10  A    between atoms: O4_29  and  C24_30
REMARK   11  A    between atoms: C27_33  and  C28_34
REMARK                            x       y       z     vdW  Elec       q    Type
REMARK                         _______ _______ _______ _____ _____    ______ ____
ROOT
ATOM      1  C2  UNL     1      -1.653  41.374  -1.666  0.00  0.00    +0.172 A 
ATOM      2  C3  UNL     1      -2.109  41.610  -0.359  0.00  0.00    +0.040 A 
ATOM      3  C4  UNL     1      -1.955  40.640   0.633  0.00  0.00    +0.005 A 
ATOM      4  C5  UNL     1      -1.344  39.406   0.346  0.00  0.00    +0.019 A 
ATOM      5  C18 UNL     1      -0.911  39.169  -0.975  0.00  0.00    +0.041 A 
ATOM      6  C19 UNL     1      -1.055  40.147  -1.976  0.00  0.00    +0.172 A 
ENDROOT
BRANCH   4   7
ATOM      7  C6  UNL     1      -1.130  38.352   1.385  0.00  0.00    +0.084 C 
ATOM      8  N1  UNL     1      -2.149  37.771   1.953  0.00  0.00    -0.180 NA
ATOM      9  N2  UNL     1      -1.737  36.821   2.883  0.00  0.00    -0.183 N 
ATOM     10  C14 UNL     1      -0.323  36.810   2.890  0.00  0.00    +0.249 C 
ATOM     11  O2  UNL     1       0.378  36.071   3.633  0.00  0.00    -0.273 OA
ATOM     12  C15 UNL     1       0.205  37.807   1.908  0.00  0.00    +0.107 C 
ATOM     13  C16 UNL     1       1.028  38.869   2.657  0.00  0.00    +0.015 C 
ATOM     14  C17 UNL     1       1.017  37.070   0.827  0.00  0.00    +0.015 C 
BRANCH   9  15
ATOM     15  C7  UNL     1      -2.662  35.992   3.662  0.00  0.00    +0.099 C 
ATOM     16  C8  UNL     1      -3.190  34.809   2.801  0.00  0.00    +0.022 C 
ATOM     17  C9  UNL     1      -4.654  34.899   2.335  0.00  0.00    +0.002 C 
ATOM     18  C10 UNL     1      -5.651  34.505   3.436  0.00  0.00    +0.000 C 
ATOM     19  C11 UNL     1      -5.947  35.640   4.422  0.00  0.00    +0.000 C 
ATOM     20  C12 UNL     1      -4.714  36.100   5.210  0.00  0.00    +0.002 C 
ATOM     21  C13 UNL     1      -3.724  36.886   4.336  0.00  0.00    +0.022 C 
ENDBRANCH   9  15
ENDBRANCH   4   7
BRANCH   1  23
ATOM     22  C1  UNL     1      -2.371  43.615  -2.518  0.00  0.00    +0.253 C 
ATOM     23  O1  UNL     1      -1.770  42.335  -2.683  0.00  0.00    -0.468 OA
ENDBRANCH   1  23
BRANCH   6  24
ATOM     24  O3  UNL     1      -0.602  39.946  -3.288  0.00  0.00    -0.472 OA
BRANCH  24  25
ATOM     25  C20 UNL     1      -1.155  39.005  -4.206  0.00  0.00    +0.206 C 
BRANCH  25  26
ATOM     26  C21 UNL     1      -0.813  37.577  -3.766  0.00  0.00    +0.051 C 
BRANCH  26  27
ATOM     27  C22 UNL     1      -2.046  36.714  -3.435  0.00  0.00    +0.051 C 
BRANCH  27  28
ATOM     28  C23 UNL     1      -2.319  36.585  -1.932  0.00  0.00    +0.206 C 
BRANCH  28  29
ATOM     29  O4  UNL     1      -3.718  36.446  -1.701  0.00  0.00    -0.475 OA
BRANCH  29  30
ATOM     30  C24 UNL     1      -4.538  37.440  -1.150  0.00  0.00    +0.139 A 
ATOM     31  C25 UNL     1      -5.521  37.154  -0.182  0.00  0.00    +0.037 A 
ATOM     32  C26 UNL     1      -6.319  38.178   0.334  0.00  0.00    +0.006 A 
ATOM     33  C27 UNL     1      -6.158  39.502  -0.109  0.00  0.00    +0.040 A 
ATOM     34  C29 UNL     1      -5.174  39.784  -1.073  0.00  0.00    +0.006 A 
ATOM     35  C30 UNL     1      -4.371  38.760  -1.584  0.00  0.00    +0.037 A 
BRANCH  33  36
ATOM     36  C28 UNL     1      -7.013  40.579   0.432  0.00  0.00    +0.208 A 
ATOM     37  N3  UNL     1      -8.198  40.377   1.046  0.00  0.00    -0.106 NA
ATOM     38  N4  UNL     1      -8.626  41.586   1.371  0.00  0.00    -0.021 NA
ATOM     39  N5  UNL     1      -7.739  42.479   0.968  0.00  0.00    -0.021 NA
ATOM     40  N6  UNL     1      -6.712  41.892   0.377  0.00  0.00    -0.106 NA
ENDBRANCH  33  36
ENDBRANCH  29  30
ENDBRANCH  28  29
ENDBRANCH  27  28
ENDBRANCH  26  27
ENDBRANCH  25  26
ENDBRANCH  24  25
ENDBRANCH   6  24
TORSDOF 11
ENDMDL
MODEL 3
REMARK VINA RESULT:      -7.2      1.456      2.195
REMARK  Name = ./threeLigTest/pdb/l0c4.pdb
REMARK  11 active torsions:
REMARK  status: ('A' for Active; 'I' for Inactive)
REMARK    1  A    between atoms: O1_2  and  C2_3
REMARK    2  A    between atoms: C5_6  and  C6_7
REMARK    3  A    between atoms: N2_9  and  C7_10
REMARK    4  A    between atoms: C19_23  and  O3_24
REMARK    5  A    between atoms: O3_24  and  C20_25
REMARK    6  A    between atoms: C20_25  and  C21_26
REMARK    7  A    between atoms: C21_26  and  C22_27
REMARK    8  A    between atoms: C22_27  and  C23_28
REMARK    9  A    between atoms: C23_28  and  O4_29
REMARK   10  A    between atoms: O4_29  and  C24_30
REMARK   11  A    between atoms: C27_33  and  C28_34
REMARK                            x       y       z     vdW  Elec       q    Type
REMARK                         _______ _______ _______ _____ _____    ______ ____
ROOT
ATOM      1  C2  UNL     1      -1.935  42.874  -2.076  0.00  0.00    +0.172 A 
ATOM      2  C3  UNL     1      -1.665  42.469  -0.758  0.00  0.00    +0.040 A 
ATOM      3  C4  UNL     1      -1.681  41.117  -0.413  0.00  0.00    +0.005 A 
ATOM      4  C5  UNL     1      -1.972  40.131  -1.373  0.00  0.00    +0.019 A 
ATOM      5  C18 UNL     1      -2.265  40.548  -2.688  0.00  0.00    +0.041 A 
ATOM      6  C19 UNL     1      -2.240  41.909  -3.043  0.00  0.00    +0.172 A 
ENDROOT
BRANCH   4   7
ATOM      7  C6  UNL     1      -1.970  38.669  -1.053  0.00  0.00    +0.084 C 
ATOM      8  N1  UNL     1      -2.657  38.216  -0.045  0.00  0.00    -0.180 NA
ATOM      9  N2  UNL     1      -2.526  36.835   0.077  0.00  0.00    -0.183 N 
ATOM     10  C14 UNL     1      -1.675  36.390  -0.960  0.00  0.00    +0.249 C 
ATOM     11  O2  UNL     1      -1.334  35.189  -1.133  0.00  0.00    -0.273 OA
ATOM     12  C15 UNL     1      -1.236  37.548  -1.799  0.00  0.00    +0.107 C 
ATOM     13  C16 UNL     1       0.294  37.681  -1.717  0.00  0.00    +0.015 C 
ATOM     14  C17 UNL     1      -1.745  37.350  -3.239  0.00  0.00    +0.015 C 
BRANCH   9  15
ATOM     15  C7  UNL     1      -3.205  36.042   1.108  0.00  0.00    +0.099 C 
ATOM     16  C8  UNL     1      -4.738  36.007   0.848  0.00  0.00    +0.022 C 
ATOM     17  C9  UNL     1      -5.615  36.839   1.799  0.00  0.00    +0.002 C 
ATOM     18  C10 UNL     1      -5.857  36.139   3.146  0.00  0.00    +0.000 C 
ATOM     19  C11 UNL     1      -4.702  36.313   4.137  0.00  0.00    +0.000 C 
ATOM     20  C12 UNL     1      -3.383  35.698   3.651  0.00  0.00    +0.002 C 
ATOM     21  C13 UNL     1      -2.750  36.507   2.508  0.00  0.00    +0.022 C 
ENDBRANCH   9  15
ENDBRANCH   4   7
BRANCH   1  23
ATOM     22  C1  UNL     1      -3.032  45.090  -2.455  0.00  0.00    +0.253 C 
ATOM     23  O1  UNL     1      -1.904  44.222  -2.465  0.00  0.00    -0.468 OA
ENDBRANCH   1  23
BRANCH   6  24
ATOM     24  O3  UNL     1      -2.496  42.345  -4.352  0.00  0.00    -0.472 OA
BRANCH  24  25
ATOM     25  C20 UNL     1      -1.586  42.225  -5.443  0.00  0.00    +0.206 C 
BRANCH  25  26
ATOM     26  C21 UNL     1      -1.823  43.352  -6.454  0.00  0.00    +0.051 C 
BRANCH  26  27
ATOM     27  C22 UNL     1      -2.348  44.656  -5.821  0.00  0.00    +0.051 C 
BRANCH  27  28
ATOM     28  C23 UNL     1      -3.219  45.490  -6.767  0.00  0.00    +0.206 C 
BRANCH  28  29
ATOM     29  O4  UNL     1      -2.736  46.830  -6.819  0.00  0.00    -0.475 OA
BRANCH  29  30
ATOM     30  C24 UNL     1      -3.239  47.889  -6.050  0.00  0.00    +0.139 A 
ATOM     31  C25 UNL     1      -2.446  48.991  -5.675  0.00  0.00    +0.037 A 
ATOM     32  C26 UNL     1      -2.990  50.020  -4.902  0.00  0.00    +0.006 A 
ATOM     33  C27 UNL     1      -4.330  49.966  -4.484  0.00  0.00    +0.040 A 
ATOM     34  C29 UNL     1      -5.121  48.866  -4.862  0.00  0.00    +0.006 A 
ATOM     35  C30 UNL     1      -4.577  47.840  -5.642  0.00  0.00    +0.037 A 
BRANCH  33  36
ATOM     36  C28 UNL     1      -4.898  51.052  -3.657  0.00  0.00    +0.208 A 
ATOM     37  N3  UNL     1      -6.196  51.138  -3.299  0.00  0.00    -0.106 NA
ATOM     38  N4  UNL     1      -6.279  52.243  -2.576  0.00  0.00    -0.021 NA
ATOM     39  N5  UNL     1      -5.083  52.800  -2.503  0.00  0.00    -0.021 NA
ATOM     40  N6  UNL     1      -4.189  52.086  -3.165  0.00  0.00    -0.106 NA
ENDBRANCH  33  36
ENDBRANCH  29  30
ENDBRANCH  28  29
ENDBRANCH  27  28
ENDBRANCH  26  27
ENDBRANCH  25  26
ENDBRANCH  24  25
ENDBRANCH   6  24
TORSDOF 11
ENDMDL
MODEL 4
REMARK VINA RESULT:      -6.9      4.606      5.969
REMARK  Name = ./threeLigTest/pdb/l0c4.pdb
REMARK  11 active torsions:
REMARK  status: ('A' for Active; 'I' for Inactive)
REMARK    1  A    between atoms: O1_2  and  C2_3
REMARK    2  A    between atoms: C5_6  and  C6_7
REMARK    3  A    between atoms: N2_9  and  C7_10
REMARK    4  A    between atoms: C19_23  and  O3_24
REMARK    5  A    between atoms: O3_24  and  C20_25
REMARK    6  A    between atoms: C20_25  and  C21_26
REMARK    7  A    between atoms: C21_26  and  C22_27
REMARK    8  A    between atoms: C22_27  and  C23_28
REMARK    9  A    between atoms: C23_28  and  O4_29
REMARK   10  A    between atoms: O4_29  and  C24_30
REMARK   11  A    between atoms: C27_33  and  C28_34
REMARK                            x       y       z     vdW  Elec       q    Type
REMARK                         _______ _______ _______ _____ _____    ______ ____
ROOT
ATOM      1  C2  UNL     1      -1.444  42.289  -1.445  0.00  0.00    +0.172 A 
ATOM      2  C3  UNL     1      -1.645  41.912  -0.106  0.00  0.00    +0.040 A 
ATOM      3  C4  UNL     1      -1.956  40.591   0.221  0.00  0.00    +0.005 A 
ATOM      4  C5  UNL     1      -2.080  39.610  -0.780  0.00  0.00    +0.019 A 
ATOM      5  C18 UNL     1      -1.900  40.003  -2.123  0.00  0.00    +0.041 A 
ATOM      6  C19 UNL     1      -1.576  41.331  -2.457  0.00  0.00    +0.172 A 
ENDROOT
BRANCH   4   7
ATOM      7  C6  UNL     1      -2.381  38.178  -0.472  0.00  0.00    +0.084 C 
ATOM      8  N1  UNL     1      -2.431  37.767   0.763  0.00  0.00    -0.180 NA
ATOM      9  N2  UNL     1      -2.729  36.409   0.833  0.00  0.00    -0.183 N 
ATOM     10  C14 UNL     1      -2.881  35.933  -0.490  0.00  0.00    +0.249 C 
ATOM     11  O2  UNL     1      -3.142  34.736  -0.788  0.00  0.00    -0.273 OA
ATOM     12  C15 UNL     1      -2.672  37.047  -1.466  0.00  0.00    +0.107 C 
ATOM     13  C16 UNL     1      -1.466  36.716  -2.360  0.00  0.00    +0.015 C 
ATOM     14  C17 UNL     1      -3.970  37.268  -2.265  0.00  0.00    +0.015 C 
BRANCH   9  15
ATOM     15  C7  UNL     1      -2.874  35.673   2.093  0.00  0.00    +0.099 C 
ATOM     16  C8  UNL     1      -4.365  35.633   2.532  0.00  0.00    +0.022 C 
ATOM     17  C9  UNL     1      -4.752  36.516   3.731  0.00  0.00    +0.002 C 
ATOM     18  C10 UNL     1      -4.368  35.886   5.079  0.00  0.00    +0.000 C 
ATOM     19  C11 UNL     1      -2.899  36.104   5.455  0.00  0.00    +0.000 C 
ATOM     20  C12 UNL     1      -1.915  35.459   4.471  0.00  0.00    +0.002 C 
ATOM     21  C13 UNL     1      -1.861  36.206   3.128  0.00  0.00    +0.022 C 
ENDBRANCH   9  15
ENDBRANCH   4   7
BRANCH   1  23
ATOM     22  C1  UNL     1      -1.043  44.699  -0.903  0.00  0.00    +0.253 C 
ATOM     23  O1  UNL     1      -1.107  43.602  -1.809  0.00  0.00    -0.468 OA
ENDBRANCH   1  23
BRANCH   6  24
ATOM     24  O3  UNL     1      -1.360  41.738  -3.782  0.00  0.00    -0.472 OA
BRANCH  24  25
ATOM     25  C20 UNL     1      -2.363  42.271  -4.644  0.00  0.00    +0.206 C 
BRANCH  25  26
ATOM     26  C21 UNL     1      -2.134  43.772  -4.853  0.00  0.00    +0.051 C 
BRANCH  26  27
ATOM     27  C22 UNL     1      -2.897  44.664  -3.853  0.00  0.00    +0.051 C 
BRANCH  27  28
ATOM     28  C23 UNL     1      -4.261  44.098  -3.443  0.00  0.00    +0.206 C 
BRANCH  28  29
ATOM     29  O4  UNL     1      -4.246  43.747  -2.061  0.00  0.00    -0.475 OA
BRANCH  29  30
ATOM     30  C24 UNL     1      -4.894  42.630  -1.516  0.00  0.00    +0.139 A 
ATOM     31  C25 UNL     1      -5.507  42.659  -0.249  0.00  0.00    +0.037 A 
ATOM     32  C26 UNL     1      -6.135  41.518   0.256  0.00  0.00    +0.006 A 
ATOM     33  C27 UNL     1      -6.156  40.326  -0.488  0.00  0.00    +0.040 A 
ATOM     34  C29 UNL     1      -5.544  40.300  -1.754  0.00  0.00    +0.006 A 
ATOM     35  C30 UNL     1      -4.923  41.445  -2.261  0.00  0.00    +0.037 A 
BRANCH  33  36
ATOM     36  C28 UNL     1      -6.812  39.118   0.056  0.00  0.00    +0.208 A 
ATOM     37  N3  UNL     1      -8.147  38.924   0.085  0.00  0.00    -0.106 NA
ATOM     38  N4  UNL     1      -8.308  37.736   0.644  0.00  0.00    -0.021 NA
ATOM     39  N5  UNL     1      -7.121  37.236   0.942  0.00  0.00    -0.021 NA
ATOM     40  N6  UNL     1      -6.157  38.068   0.588  0.00  0.00    -0.106 NA
ENDBRANCH  33  36
ENDBRANCH  29  30
ENDBRANCH  28  29
ENDBRANCH  27  28
ENDBRANCH  26  27
ENDBRANCH  25  26
ENDBRANCH  24  25
ENDBRANCH   6  24
TORSDOF 11
ENDMDL
MODEL 5
REMARK VINA RESULT:      -5.4      4.796      7.398
REMARK  Name = ./threeLigTest/pdb/l0c4.pdb
REMARK  11 active torsions:
REMARK  status: ('A' for Active; 'I' for Inactive)
REMARK    1  A    between atoms: O1_2  and  C2_3
REMARK    2  A    between atoms: C5_6  and  C6_7
REMARK    3  A    between atoms: N2_9  and  C7_10
REMARK    4  A    between atoms: C19_23  and  O3_24
REMARK    5  A    between atoms: O3_24  and  C20_25
REMARK    6  A    between atoms: C20_25  and  C21_26
REMARK    7  A    between atoms: C21_26  and  C22_27
REMARK    8  A    between atoms: C22_27  and  C23_28
REMARK    9  A    between atoms: C23_28  and  O4_29
REMARK   10  A    between atoms: O4_29  and  C24_30
REMARK   11  A    between atoms: C27_33  and  C28_34
REMARK                            x       y       z     vdW  Elec       q    Type
REMARK                         _______ _______ _______ _____ _____    ______ ____
ROOT
ATOM      1  C2  UNL     1      -1.711  43.119  -1.836  0.00  0.00    +0.172 A 
ATOM      2  C3  UNL     1      -1.592  42.447  -0.608  0.00  0.00    +0.040 A 
ATOM      3  C4  UNL     1      -1.388  41.066  -0.571  0.00  0.00    +0.005 A 
ATOM      4  C5  UNL     1      -1.302  40.318  -1.759  0.00  0.00    +0.019 A 
ATOM      5  C18 UNL     1      -1.447  40.998  -2.986  0.00  0.00    +0.041 A 
ATOM      6  C19 UNL     1      -1.642  42.392  -3.029  0.00  0.00    +0.172 A 
ENDROOT
BRANCH   4   7
ATOM      7  C6  UNL     1      -1.054  38.843  -1.767  0.00  0.00    +0.084 C 
ATOM      8  N1  UNL     1      -0.875  38.201  -0.649  0.00  0.00    -0.180 NA
ATOM      9  N2  UNL     1      -0.666  36.842  -0.873  0.00  0.00    -0.183 N 
ATOM     10  C14 UNL     1      -0.723  36.623  -2.268  0.00  0.00    +0.249 C 
ATOM     11  O2  UNL     1      -0.560  35.500  -2.817  0.00  0.00    -0.273 OA
ATOM     12  C15 UNL     1      -0.987  37.910  -2.982  0.00  0.00    +0.107 C 
ATOM     13  C16 UNL     1       0.198  38.226  -3.910  0.00  0.00    +0.015 C 
ATOM     14  C17 UNL     1      -2.327  37.805  -3.734  0.00  0.00    +0.015 C 
BRANCH   9  15
ATOM     15  C7  UNL     1      -0.458  35.865   0.200  0.00  0.00    +0.099 C 
ATOM     16  C8  UNL     1      -1.799  35.169   0.571  0.00  0.00    +0.022 C 
ATOM     17  C9  UNL     1      -2.433  35.571   1.913  0.00  0.00    +0.002 C 
ATOM     18  C10 UNL     1      -1.772  34.872   3.113  0.00  0.00    +0.000 C 
ATOM     19  C11 UNL     1      -0.479  35.552   3.575  0.00  0.00    +0.000 C 
ATOM     20  C12 UNL     1       0.626  35.548   2.512  0.00  0.00    +0.002 C 
ATOM     21  C13 UNL     1       0.326  36.518   1.358  0.00  0.00    +0.022 C 
ENDBRANCH   9  15
ENDBRANCH   4   7
BRANCH   1  23
ATOM     22  C1  UNL     1      -0.876  45.435  -2.283  0.00  0.00    +0.253 C 
ATOM     23  O1  UNL     1      -1.892  44.509  -1.912  0.00  0.00    -0.468 OA
ENDBRANCH   1  23
BRANCH   6  24
ATOM     24  O3  UNL     1      -1.756  43.094  -4.238  0.00  0.00    -0.472 OA
BRANCH  24  25
ATOM     25  C20 UNL     1      -2.886  43.043  -5.106  0.00  0.00    +0.206 C 
BRANCH  25  26
ATOM     26  C21 UNL     1      -4.087  43.734  -4.450  0.00  0.00    +0.051 C 
BRANCH  26  27
ATOM     27  C22 UNL     1      -4.301  43.342  -2.974  0.00  0.00    +0.051 C 
BRANCH  27  28
ATOM     28  C23 UNL     1      -5.021  42.001  -2.793  0.00  0.00    +0.206 C 
BRANCH  28  29
ATOM     29  O4  UNL     1      -5.189  41.722  -1.406  0.00  0.00    -0.475 OA
BRANCH  29  30
ATOM     30  C24 UNL     1      -5.393  40.444  -0.868  0.00  0.00    +0.139 A 
ATOM     31  C25 UNL     1      -6.559  40.104  -0.155  0.00  0.00    +0.037 A 
ATOM     32  C26 UNL     1      -6.715  38.818   0.368  0.00  0.00    +0.006 A 
ATOM     33  C27 UNL     1      -5.710  37.851   0.197  0.00  0.00    +0.040 A 
ATOM     34  C29 UNL     1      -4.548  38.193  -0.517  0.00  0.00    +0.006 A 
ATOM     35  C30 UNL     1      -4.396  39.478  -1.047  0.00  0.00    +0.037 A 
BRANCH  33  36
ATOM     36  C28 UNL     1      -5.876  36.495   0.762  0.00  0.00    +0.208 A 
ATOM     37  N3  UNL     1      -5.949  35.366   0.025  0.00  0.00    -0.106 NA
ATOM     38  N4  UNL     1      -6.094  34.392   0.907  0.00  0.00    -0.021 NA
ATOM     39  N5  UNL     1      -6.111  34.910   2.123  0.00  0.00    -0.021 NA
ATOM     40  N6  UNL     1      -5.975  36.224   2.078  0.00  0.00    -0.106 NA
ENDBRANCH  33  36
ENDBRANCH  29  30
ENDBRANCH  28  29
ENDBRANCH  27  28
ENDBRANCH  26  27
ENDBRANCH  25  26
ENDBRANCH  24  25
ENDBRANCH   6  24
TORSDOF 11
ENDMDL
