MODEL 1
REMARK VINA RESULT:      -9.2      0.000      0.000
REMARK  Name = ./threeLigTest/pdb/l1c1.pdb
REMARK  11 active torsions:
REMARK  status: ('A' for Active; 'I' for Inactive)
REMARK    1  A    between atoms: O1_2  and  C2_3
REMARK    2  A    between atoms: C5_6  and  C6_7
REMARK    3  A    between atoms: N2_9  and  C7_10
REMARK    4  A    between atoms: C22_26  and  O3_27
REMARK    5  A    between atoms: O3_27  and  C23_28
REMARK    6  A    between atoms: C23_28  and  C24_29
REMARK    7  A    between atoms: C24_29  and  C25_30
REMARK    8  A    between atoms: C25_30  and  C26_31
REMARK    9  A    between atoms: C26_31  and  O4_32
REMARK   10  A    between atoms: O4_32  and  C27_33
REMARK   11  A    between atoms: C30_36  and  C31_37
REMARK                            x       y       z     vdW  Elec       q    Type
REMARK                         _______ _______ _______ _____ _____    ______ ____
ROOT
ATOM      1  C2  UNL     1       0.886  38.802   0.345  0.00  0.00    +0.172 A 
ATOM      2  C3  UNL     1       0.082  38.940   1.489  0.00  0.00    +0.040 A 
ATOM      3  C4  UNL     1      -1.275  38.615   1.447  0.00  0.00    +0.005 A 
ATOM      4  C5  UNL     1      -1.858  38.096   0.273  0.00  0.00    +0.018 A 
ATOM      5  C21 UNL     1      -1.036  37.948  -0.864  0.00  0.00    +0.041 A 
ATOM      6  C22 UNL     1       0.315  38.336  -0.844  0.00  0.00    +0.172 A 
ENDROOT
BRANCH   4   7
ATOM      7  C6  UNL     1      -3.309  37.735   0.194  0.00  0.00    +0.077 C 
ATOM      8  N1  UNL     1      -4.155  38.640  -0.223  0.00  0.00    -0.180 NA
ATOM      9  N2  UNL     1      -5.551  38.459  -0.275  0.00  0.00    -0.183 N 
ATOM     10  C14 UNL     1      -6.081  37.140  -0.047  0.00  0.00    +0.244 C 
ATOM     11  O2  UNL     1      -7.323  36.950   0.086  0.00  0.00    -0.273 OA
ATOM     12  C15 UNL     1      -5.113  35.991  -0.045  0.00  0.00    +0.089 C 
ATOM     13  C16 UNL     1      -5.688  34.673   0.515  0.00  0.00    +0.035 C 
ATOM     14  C17 UNL     1      -5.723  34.628   2.020  0.00  0.00    -0.030 C 
ATOM     15  C18 UNL     1      -4.922  35.383   2.784  0.00  0.00    -0.030 C 
ATOM     16  C19 UNL     1      -4.100  36.519   2.232  0.00  0.00    +0.032 C 
ATOM     17  C20 UNL     1      -3.838  36.404   0.715  0.00  0.00    +0.055 C 
BRANCH   9  18
ATOM     18  C7  UNL     1      -6.407  39.527  -0.831  0.00  0.00    +0.099 C 
ATOM     19  C8  UNL     1      -5.602  40.827  -1.052  0.00  0.00    +0.022 C 
ATOM     20  C9  UNL     1      -5.468  41.748   0.168  0.00  0.00    +0.002 C 
ATOM     21  C10 UNL     1      -6.785  42.474   0.480  0.00  0.00    +0.000 C 
ATOM     22  C11 UNL     1      -7.670  41.738   1.493  0.00  0.00    +0.000 C 
ATOM     23  C12 UNL     1      -7.729  40.207   1.353  0.00  0.00    +0.002 C 
ATOM     24  C13 UNL     1      -7.766  39.677  -0.094  0.00  0.00    +0.022 C 
ENDBRANCH   9  18
ENDBRANCH   4   7
BRANCH   1  26
ATOM     25  C1  UNL     1       2.867  40.004   1.290  0.00  0.00    +0.253 C 
ATOM     26  O1  UNL     1       2.249  39.140   0.343  0.00  0.00    -0.468 OA
ENDBRANCH   1  26
BRANCH   6  27
ATOM     27  O3  UNL     1       1.114  38.295  -1.998  0.00  0.00    -0.472 OA
BRANCH  27  28
ATOM     28  C23 UNL     1       1.079  37.254  -2.978  0.00  0.00    +0.206 C 
BRANCH  28  29
ATOM     29  C24 UNL     1       1.185  37.850  -4.387  0.00  0.00    +0.051 C 
BRANCH  29  30
ATOM     30  C25 UNL     1       0.501  39.215  -4.491  0.00  0.00    +0.051 C 
BRANCH  30  31
ATOM     31  C26 UNL     1      -1.028  39.100  -4.536  0.00  0.00    +0.206 C 
BRANCH  31  32
ATOM     32  O4  UNL     1      -1.647  39.956  -3.570  0.00  0.00    -0.475 OA
BRANCH  32  33
ATOM     33  C27 UNL     1      -1.776  41.355  -3.646  0.00  0.00    +0.139 A 
ATOM     34  C28 UNL     1      -1.924  42.181  -2.515  0.00  0.00    +0.037 A 
ATOM     35  C29 UNL     1      -2.045  43.566  -2.660  0.00  0.00    +0.006 A 
ATOM     36  C30 UNL     1      -2.006  44.159  -3.935  0.00  0.00    +0.040 A 
ATOM     37  C32 UNL     1      -1.866  43.331  -5.062  0.00  0.00    +0.006 A 
ATOM     38  C33 UNL     1      -1.746  41.946  -4.915  0.00  0.00    +0.037 A 
BRANCH  36  39
ATOM     39  C31 UNL     1      -2.087  45.634  -4.086  0.00  0.00    +0.208 A 
ATOM     40  N3  UNL     1      -1.170  46.516  -3.648  0.00  0.00    -0.106 NA
ATOM     41  N4  UNL     1      -1.608  47.714  -3.998  0.00  0.00    -0.021 NA
ATOM     42  N5  UNL     1      -2.761  47.586  -4.637  0.00  0.00    -0.021 NA
ATOM     43  N6  UNL     1      -3.081  46.303  -4.700  0.00  0.00    -0.106 NA
ENDBRANCH  36  39
ENDBRANCH  32  33
ENDBRANCH  31  32
ENDBRANCH  30  31
ENDBRANCH  29  30
ENDBRANCH  28  29
ENDBRANCH  27  28
ENDBRANCH   6  27
TORSDOF 11
ENDMDL
MODEL 2
REMARK VINA RESULT:      -7.3      3.216      7.314
REMARK  Name = ./threeLigTest/pdb/l1c1.pdb
REMARK  11 active torsions:
REMARK  status: ('A' for Active; 'I' for Inactive)
REMARK    1  A    between atoms: O1_2  and  C2_3
REMARK    2  A    between atoms: C5_6  and  C6_7
REMARK    3  A    between atoms: N2_9  and  C7_10
REMARK    4  A    between atoms: C22_26  and  O3_27
REMARK    5  A    between atoms: O3_27  and  C23_28
REMARK    6  A    between atoms: C23_28  and  C24_29
REMARK    7  A    between atoms: C24_29  and  C25_30
REMARK    8  A    between atoms: C25_30  and  C26_31
REMARK    9  A    between atoms: C26_31  and  O4_32
REMARK   10  A    between atoms: O4_32  and  C27_33
REMARK   11  A    between atoms: C30_36  and  C31_37
REMARK                            x       y       z     vdW  Elec       q    Type
REMARK                         _______ _______ _______ _____ _____    ______ ____
ROOT
ATOM      1  C2  UNL     1      -0.865  37.734   2.911  0.00  0.00    +0.172 A 
ATOM      2  C3  UNL     1      -1.327  39.058   2.832  0.00  0.00    +0.040 A 
ATOM      3  C4  UNL     1      -1.507  39.674   1.592  0.00  0.00    +0.005 A 
ATOM      4  C5  UNL     1      -1.277  38.969   0.394  0.00  0.00    +0.018 A 
ATOM      5  C21 UNL     1      -0.828  37.635   0.487  0.00  0.00    +0.041 A 
ATOM      6  C22 UNL     1      -0.582  37.033   1.734  0.00  0.00    +0.172 A 
ENDROOT
BRANCH   4   7
ATOM      7  C6  UNL     1      -1.463  39.599  -0.952  0.00  0.00    +0.077 C 
ATOM      8  N1  UNL     1      -0.861  39.061  -1.980  0.00  0.00    -0.180 NA
ATOM      9  N2  UNL     1      -0.889  39.591  -3.285  0.00  0.00    -0.183 N 
ATOM     10  C14 UNL     1      -1.789  40.681  -3.563  0.00  0.00    +0.244 C 
ATOM     11  O2  UNL     1      -1.738  41.305  -4.660  0.00  0.00    -0.273 OA
ATOM     12  C15 UNL     1      -2.836  41.000  -2.534  0.00  0.00    +0.089 C 
ATOM     13  C16 UNL     1      -3.544  42.355  -2.743  0.00  0.00    +0.035 C 
ATOM     14  C17 UNL     1      -2.735  43.532  -2.265  0.00  0.00    -0.030 C 
ATOM     15  C18 UNL     1      -1.772  43.419  -1.339  0.00  0.00    -0.030 C 
ATOM     16  C19 UNL     1      -1.236  42.089  -0.877  0.00  0.00    +0.032 C 
ATOM     17  C20 UNL     1      -2.208  40.916  -1.129  0.00  0.00    +0.055 C 
BRANCH   9  18
ATOM     18  C7  UNL     1      -0.232  38.860  -4.387  0.00  0.00    +0.099 C 
ATOM     19  C8  UNL     1      -0.468  37.338  -4.263  0.00  0.00    +0.022 C 
ATOM     20  C9  UNL     1       0.506  36.581  -3.350  0.00  0.00    +0.002 C 
ATOM     21  C10 UNL     1       1.894  36.435  -3.995  0.00  0.00    +0.000 C 
ATOM     22  C11 UNL     1       2.867  37.559  -3.622  0.00  0.00    +0.000 C 
ATOM     23  C12 UNL     1       2.272  38.975  -3.552  0.00  0.00    +0.002 C 
ATOM     24  C13 UNL     1       1.233  39.309  -4.640  0.00  0.00    +0.022 C 
ENDBRANCH   9  18
ENDBRANCH   4   7
BRANCH   1  26
ATOM     25  C1  UNL     1      -1.684  36.598   4.985  0.00  0.00    +0.253 C 
ATOM     26  O1  UNL     1      -0.649  37.088   4.139  0.00  0.00    -0.468 OA
ENDBRANCH   1  26
BRANCH   6  27
ATOM     27  O3  UNL     1      -0.033  35.744   1.838  0.00  0.00    -0.472 OA
BRANCH  27  28
ATOM     28  C23 UNL     1      -0.744  34.531   1.579  0.00  0.00    +0.206 C 
BRANCH  28  29
ATOM     29  C24 UNL     1      -1.226  34.500   0.123  0.00  0.00    +0.051 C 
BRANCH  29  30
ATOM     30  C25 UNL     1      -2.752  34.482   0.019  0.00  0.00    +0.051 C 
BRANCH  30  31
ATOM     31  C26 UNL     1      -3.277  35.476  -1.025  0.00  0.00    +0.206 C 
BRANCH  31  32
ATOM     32  O4  UNL     1      -4.692  35.656  -0.912  0.00  0.00    -0.475 OA
BRANCH  32  33
ATOM     33  C27 UNL     1      -5.364  36.838  -0.547  0.00  0.00    +0.139 A 
ATOM     34  C28 UNL     1      -6.537  36.852   0.232  0.00  0.00    +0.037 A 
ATOM     35  C29 UNL     1      -7.154  38.063   0.562  0.00  0.00    +0.006 A 
ATOM     36  C30 UNL     1      -6.605  39.286   0.138  0.00  0.00    +0.040 A 
ATOM     37  C32 UNL     1      -5.437  39.268  -0.645  0.00  0.00    +0.006 A 
ATOM     38  C33 UNL     1      -4.823  38.056  -0.976  0.00  0.00    +0.037 A 
BRANCH  36  39
ATOM     39  C31 UNL     1      -7.233  40.573   0.528  0.00  0.00    +0.208 A 
ATOM     40  N3  UNL     1      -8.417  40.707   1.153  0.00  0.00    -0.106 NA
ATOM     41  N4  UNL     1      -8.598  42.005   1.335  0.00  0.00    -0.021 NA
ATOM     42  N5  UNL     1      -7.559  42.661   0.843  0.00  0.00    -0.021 NA
ATOM     43  N6  UNL     1      -6.700  41.794   0.333  0.00  0.00    -0.106 NA
ENDBRANCH  36  39
ENDBRANCH  32  33
ENDBRANCH  31  32
ENDBRANCH  30  31
ENDBRANCH  29  30
ENDBRANCH  28  29
ENDBRANCH  27  28
ENDBRANCH   6  27
TORSDOF 11
ENDMDL
