MODEL 1
REMARK VINA RESULT:      -9.1      0.000      0.000
REMARK  Name = ./threeLigTest/pdb/l0c3.pdb
REMARK  11 active torsions:
REMARK  status: ('A' for Active; 'I' for Inactive)
REMARK    1  A    between atoms: O1_2  and  C2_3
REMARK    2  A    between atoms: C5_6  and  C6_7
REMARK    3  A    between atoms: N2_9  and  C7_10
REMARK    4  A    between atoms: C19_23  and  O3_24
REMARK    5  A    between atoms: O3_24  and  C20_25
REMARK    6  A    between atoms: C20_25  and  C21_26
REMARK    7  A    between atoms: C21_26  and  C22_27
REMARK    8  A    between atoms: C22_27  and  C23_28
REMARK    9  A    between atoms: C23_28  and  O4_29
REMARK   10  A    between atoms: O4_29  and  C24_30
REMARK   11  A    between atoms: C27_33  and  C28_34
REMARK                            x       y       z     vdW  Elec       q    Type
REMARK                         _______ _______ _______ _____ _____    ______ ____
ROOT
ATOM      1  C2  UNL     1      -0.648  35.298  -3.016  0.00  0.00    +0.172 A 
ATOM      2  C3  UNL     1      -1.271  34.433  -2.099  0.00  0.00    +0.040 A 
ATOM      3  C4  UNL     1      -2.350  34.872  -1.330  0.00  0.00    +0.005 A 
ATOM      4  C5  UNL     1      -2.815  36.192  -1.436  0.00  0.00    +0.019 A 
ATOM      5  C18 UNL     1      -2.165  37.064  -2.332  0.00  0.00    +0.041 A 
ATOM      6  C19 UNL     1      -1.104  36.617  -3.139  0.00  0.00    +0.172 A 
ENDROOT
BRANCH   4   7
ATOM      7  C6  UNL     1      -4.003  36.685  -0.681  0.00  0.00    +0.086 C 
ATOM      8  N1  UNL     1      -4.155  37.946  -0.432  0.00  0.00    -0.171 NA
ATOM      9  N2  UNL     1      -5.420  38.191   0.102  0.00  0.00    -0.222 N 
ATOM     10  C14 UNL     1      -6.077  37.079   0.176  0.00  0.00    +0.257 C 
ATOM     11  O2  UNL     1      -7.410  37.002   0.579  0.00  0.00    -0.270 OA
ATOM     12  C15 UNL     1      -5.240  35.910  -0.263  0.00  0.00    +0.110 C 
ATOM     13  C16 UNL     1      -5.919  35.188  -1.436  0.00  0.00    +0.015 C 
ATOM     14  C17 UNL     1      -4.984  34.987   0.939  0.00  0.00    +0.015 C 
BRANCH   9  15
ATOM     15  C7  UNL     1      -5.966  39.537   0.367  0.00  0.00    +0.108 C 
ATOM     16  C8  UNL     1      -7.475  39.619  -0.005  0.00  0.00    +0.024 C 
ATOM     17  C9  UNL     1      -8.258  40.599   0.885  0.00  0.00    +0.002 C 
ATOM     18  C10 UNL     1      -8.014  42.078   0.564  0.00  0.00    +0.000 C 
ATOM     19  C11 UNL     1      -6.541  42.492   0.669  0.00  0.00    +0.000 C 
ATOM     20  C12 UNL     1      -5.722  42.000  -0.540  0.00  0.00    +0.002 C 
ATOM     21  C13 UNL     1      -5.107  40.598  -0.368  0.00  0.00    +0.024 C 
ENDBRANCH   9  15
ENDBRANCH   4   7
BRANCH   1  23
ATOM     22  C1  UNL     1       1.713  34.563  -3.367  0.00  0.00    +0.253 C 
ATOM     23  O1  UNL     1       0.409  34.879  -3.837  0.00  0.00    -0.468 OA
ENDBRANCH   1  23
BRANCH   6  24
ATOM     24  O3  UNL     1      -0.506  37.443  -4.102  0.00  0.00    -0.472 OA
BRANCH  24  25
ATOM     25  C20 UNL     1      -1.059  38.665  -4.587  0.00  0.00    +0.206 C 
BRANCH  25  26
ATOM     26  C21 UNL     1      -0.522  39.848  -3.777  0.00  0.00    +0.051 C 
BRANCH  26  27
ATOM     27  C22 UNL     1      -1.605  40.866  -3.367  0.00  0.00    +0.051 C 
BRANCH  27  28
ATOM     28  C23 UNL     1      -1.838  40.953  -1.848  0.00  0.00    +0.206 C 
BRANCH  28  29
ATOM     29  O4  UNL     1      -2.258  42.253  -1.432  0.00  0.00    -0.475 OA
BRANCH  29  30
ATOM     30  C24 UNL     1      -2.384  43.378  -2.259  0.00  0.00    +0.139 A 
ATOM     31  C25 UNL     1      -1.460  44.413  -2.102  0.00  0.00    +0.037 A 
ATOM     32  C26 UNL     1      -1.568  45.583  -2.855  0.00  0.00    +0.006 A 
ATOM     33  C27 UNL     1      -2.603  45.739  -3.792  0.00  0.00    +0.040 A 
ATOM     34  C29 UNL     1      -3.514  44.684  -3.974  0.00  0.00    +0.006 A 
ATOM     35  C30 UNL     1      -3.402  43.511  -3.219  0.00  0.00    +0.037 A 
BRANCH  33  36
ATOM     36  C28 UNL     1      -2.734  47.011  -4.545  0.00  0.00    +0.208 A 
ATOM     37  N3  UNL     1      -3.511  47.170  -5.633  0.00  0.00    -0.106 NA
ATOM     38  N4  UNL     1      -3.341  48.433  -6.000  0.00  0.00    -0.021 NA
ATOM     39  N5  UNL     1      -2.493  49.030  -5.178  0.00  0.00    -0.021 NA
ATOM     40  N6  UNL     1      -2.100  48.164  -4.264  0.00  0.00    -0.106 NA
ENDBRANCH  33  36
ENDBRANCH  29  30
ENDBRANCH  28  29
ENDBRANCH  27  28
ENDBRANCH  26  27
ENDBRANCH  25  26
ENDBRANCH  24  25
ENDBRANCH   6  24
TORSDOF 11
ENDMDL
MODEL 2
REMARK VINA RESULT:      -8.6      2.373      7.306
REMARK  Name = ./threeLigTest/pdb/l0c3.pdb
REMARK  11 active torsions:
REMARK  status: ('A' for Active; 'I' for Inactive)
REMARK    1  A    between atoms: O1_2  and  C2_3
REMARK    2  A    between atoms: C5_6  and  C6_7
REMARK    3  A    between atoms: N2_9  and  C7_10
REMARK    4  A    between atoms: C19_23  and  O3_24
REMARK    5  A    between atoms: O3_24  and  C20_25
REMARK    6  A    between atoms: C20_25  and  C21_26
REMARK    7  A    between atoms: C21_26  and  C22_27
REMARK    8  A    between atoms: C22_27  and  C23_28
REMARK    9  A    between atoms: C23_28  and  O4_29
REMARK   10  A    between atoms: O4_29  and  C24_30
REMARK   11  A    between atoms: C27_33  and  C28_34
REMARK                            x       y       z     vdW  Elec       q    Type
REMARK                         _______ _______ _______ _____ _____    ______ ____
ROOT
ATOM      1  C2  UNL     1      -0.160  37.970  -3.977  0.00  0.00    +0.172 A 
ATOM      2  C3  UNL     1      -0.241  39.062  -4.859  0.00  0.00    +0.040 A 
ATOM      3  C4  UNL     1      -0.837  40.258  -4.456  0.00  0.00    +0.005 A 
ATOM      4  C5  UNL     1      -1.393  40.383  -3.172  0.00  0.00    +0.019 A 
ATOM      5  C18 UNL     1      -1.339  39.275  -2.305  0.00  0.00    +0.041 A 
ATOM      6  C19 UNL     1      -0.704  38.082  -2.690  0.00  0.00    +0.172 A 
ENDROOT
BRANCH   4   7
ATOM      7  C6  UNL     1      -1.983  41.660  -2.679  0.00  0.00    +0.086 C 
ATOM      8  N1  UNL     1      -1.577  42.800  -3.138  0.00  0.00    -0.171 NA
ATOM      9  N2  UNL     1      -2.400  43.832  -2.685  0.00  0.00    -0.222 N 
ATOM     10  C14 UNL     1      -3.341  43.339  -1.948  0.00  0.00    +0.257 C 
ATOM     11  O2  UNL     1      -4.383  44.102  -1.423  0.00  0.00    -0.270 OA
ATOM     12  C15 UNL     1      -3.186  41.854  -1.773  0.00  0.00    +0.110 C 
ATOM     13  C16 UNL     1      -4.442  41.131  -2.283  0.00  0.00    +0.015 C 
ATOM     14  C17 UNL     1      -2.876  41.544  -0.300  0.00  0.00    +0.015 C 
BRANCH   9  15
ATOM     15  C7  UNL     1      -2.298  45.236  -3.134  0.00  0.00    +0.108 C 
ATOM     16  C8  UNL     1      -2.678  45.378  -4.636  0.00  0.00    +0.024 C 
ATOM     17  C9  UNL     1      -3.328  46.734  -4.963  0.00  0.00    +0.002 C 
ATOM     18  C10 UNL     1      -2.346  47.910  -5.015  0.00  0.00    +0.000 C 
ATOM     19  C11 UNL     1      -1.567  48.114  -3.709  0.00  0.00    +0.000 C 
ATOM     20  C12 UNL     1      -0.448  47.068  -3.541  0.00  0.00    +0.002 C 
ATOM     21  C13 UNL     1      -0.881  45.779  -2.818  0.00  0.00    +0.024 C 
ENDBRANCH   9  15
ENDBRANCH   4   7
BRANCH   1  23
ATOM     22  C1  UNL     1       1.873  36.542  -4.237  0.00  0.00    +0.253 C 
ATOM     23  O1  UNL     1       0.472  36.770  -4.332  0.00  0.00    -0.468 OA
ENDBRANCH   1  23
BRANCH   6  24
ATOM     24  O3  UNL     1      -0.558  37.001  -1.808  0.00  0.00    -0.472 OA
BRANCH  24  25
ATOM     25  C20 UNL     1      -1.542  35.994  -1.580  0.00  0.00    +0.206 C 
BRANCH  25  26
ATOM     26  C21 UNL     1      -1.456  35.487  -0.138  0.00  0.00    +0.051 C 
BRANCH  26  27
ATOM     27  C22 UNL     1      -2.773  35.629   0.651  0.00  0.00    +0.051 C 
BRANCH  27  28
ATOM     28  C23 UNL     1      -3.905  34.715   0.149  0.00  0.00    +0.206 C 
BRANCH  28  29
ATOM     29  O4  UNL     1      -4.826  35.399  -0.702  0.00  0.00    -0.475 OA
BRANCH  29  30
ATOM     30  C24 UNL     1      -5.486  36.598  -0.400  0.00  0.00    +0.139 A 
ATOM     31  C25 UNL     1      -4.852  37.796  -0.736  0.00  0.00    +0.037 A 
ATOM     32  C26 UNL     1      -5.431  39.023  -0.408  0.00  0.00    +0.006 A 
ATOM     33  C27 UNL     1      -6.668  39.076   0.256  0.00  0.00    +0.040 A 
ATOM     34  C29 UNL     1      -7.323  37.871   0.564  0.00  0.00    +0.006 A 
ATOM     35  C30 UNL     1      -6.740  36.643   0.233  0.00  0.00    +0.037 A 
BRANCH  33  36
ATOM     36  C28 UNL     1      -7.244  40.388   0.644  0.00  0.00    +0.208 A 
ATOM     37  N3  UNL     1      -8.356  40.537   1.388  0.00  0.00    -0.106 NA
ATOM     38  N4  UNL     1      -8.528  41.847   1.497  0.00  0.00    -0.021 NA
ATOM     39  N5  UNL     1      -7.566  42.483   0.848  0.00  0.00    -0.021 NA
ATOM     40  N6  UNL     1      -6.754  41.596   0.307  0.00  0.00    -0.106 NA
ENDBRANCH  33  36
ENDBRANCH  29  30
ENDBRANCH  28  29
ENDBRANCH  27  28
ENDBRANCH  26  27
ENDBRANCH  25  26
ENDBRANCH  24  25
ENDBRANCH   6  24
TORSDOF 11
ENDMDL
