MODEL 1
REMARK VINA RESULT:      -7.4      0.000      0.000
REMARK  Name = ./threeLigTest/pdb/l2c4.pdb
REMARK  7 active torsions:
REMARK  status: ('A' for Active; 'I' for Inactive)
REMARK    1  A    between atoms: N5_10  and  C6_11
REMARK    2  A    between atoms: C7_13  and  C8_14
REMARK    3  A    between atoms: C8_14  and  S1_15
REMARK    4  A    between atoms: S1_15  and  C9_16
REMARK    5  A    between atoms: C9_16  and  C10_17
REMARK    6  A    between atoms: C10_17  and  C11_18
REMARK    7  A    between atoms: C11_18  and  C12_20
REMARK                            x       y       z     vdW  Elec       q    Type
REMARK                         _______ _______ _______ _____ _____    ______ ____
ROOT
ATOM      1  C6  UNL     1      -1.279  39.295  -2.340  0.00  0.00    +0.241 C 
ATOM      2  O1  UNL     1      -1.971  38.155  -2.804  0.00  0.00    -0.332 OA
ATOM      3  C7  UNL     1      -2.543  37.502  -1.690  0.00  0.00    +0.161 C 
ATOM      4  C13 UNL     1      -2.029  38.164  -0.407  0.00  0.00    +0.214 C 
ATOM      5  O4  UNL     1      -0.896  37.480   0.067  0.00  0.00    -0.218 OA
ATOM      6  C14 UNL     1      -1.650  39.540  -0.885  0.00  0.00    +0.234 C 
ATOM      7  O5  UNL     1      -0.567  40.076  -0.170  0.00  0.00    -0.216 OA
ENDROOT
BRANCH   1  17
ATOM      8  N1  UNL     1      -1.786  43.728  -6.501  0.00  0.00    -0.105 NA
ATOM      9  C1  UNL     1      -1.428  42.408  -6.089  0.00  0.00    +0.192 A 
ATOM     10  N2  UNL     1      -0.820  41.553  -6.965  0.00  0.00    -0.204 NA
ATOM     11  C2  UNL     1      -0.464  40.281  -6.595  0.00  0.00    +0.202 A 
ATOM     12  N3  UNL     1      -0.710  39.832  -5.327  0.00  0.00    -0.205 NA
ATOM     13  C3  UNL     1      -1.330  40.673  -4.459  0.00  0.00    +0.169 A 
ATOM     14  C4  UNL     1      -1.682  41.937  -4.804  0.00  0.00    +0.152 A 
ATOM     15  N4  UNL     1      -2.199  42.567  -3.735  0.00  0.00    -0.219 NA
ATOM     16  C5  UNL     1      -2.136  41.646  -2.742  0.00  0.00    +0.182 A 
ATOM     17  N5  UNL     1      -1.617  40.460  -3.161  0.00  0.00    -0.269 N 
ENDBRANCH   1  17
BRANCH   3  18
ATOM     18  C8  UNL     1      -4.072  37.576  -1.803  0.00  0.00    +0.090 C 
BRANCH  18  19
ATOM     19  S1  UNL     1      -4.814  38.149  -0.228  0.00  0.00    -0.138 S 
BRANCH  19  20
ATOM     20  C9  UNL     1      -5.226  39.836  -0.801  0.00  0.00    +0.060 C 
BRANCH  20  21
ATOM     21  C10 UNL     1      -6.736  40.086  -0.682  0.00  0.00    +0.042 C 
BRANCH  21  22
ATOM     22  C11 UNL     1      -7.138  40.511   0.741  0.00  0.00    +0.195 C 
ATOM     23  N6  UNL     1      -8.355  39.810   1.161  0.00  0.00    -0.121 NA
BRANCH  22  24
ATOM     24  C12 UNL     1      -7.339  42.001   0.804  0.00  0.00    +0.382 C 
ATOM     25  O2  UNL     1      -6.409  42.780   0.464  0.00  0.00    -0.244 OA
ATOM     26  O3  UNL     1      -8.551  42.528   1.237  0.00  0.00    -0.244 OA
ENDBRANCH  22  24
ENDBRANCH  21  22
ENDBRANCH  20  21
ENDBRANCH  19  20
ENDBRANCH  18  19
ENDBRANCH   3  18
TORSDOF 7
ENDMDL
MODEL 2
REMARK VINA RESULT:      -7.0      1.834      2.368
REMARK  Name = ./threeLigTest/pdb/l2c4.pdb
REMARK  7 active torsions:
REMARK  status: ('A' for Active; 'I' for Inactive)
REMARK    1  A    between atoms: N5_10  and  C6_11
REMARK    2  A    between atoms: C7_13  and  C8_14
REMARK    3  A    between atoms: C8_14  and  S1_15
REMARK    4  A    between atoms: S1_15  and  C9_16
REMARK    5  A    between atoms: C9_16  and  C10_17
REMARK    6  A    between atoms: C10_17  and  C11_18
REMARK    7  A    between atoms: C11_18  and  C12_20
REMARK                            x       y       z     vdW  Elec       q    Type
REMARK                         _______ _______ _______ _____ _____    ______ ____
ROOT
ATOM      1  C6  UNL     1      -1.093  39.293  -3.959  0.00  0.00    +0.241 C 
ATOM      2  O1  UNL     1      -2.141  38.363  -3.781  0.00  0.00    -0.332 OA
ATOM      3  C7  UNL     1      -1.610  37.217  -3.149  0.00  0.00    +0.161 C 
ATOM      4  C13 UNL     1      -0.084  37.345  -3.085  0.00  0.00    +0.214 C 
ATOM      5  O4  UNL     1       0.499  36.717  -4.198  0.00  0.00    -0.218 OA
ATOM      6  C14 UNL     1       0.116  38.835  -3.158  0.00  0.00    +0.234 C 
ATOM      7  O5  UNL     1       1.313  39.184  -3.806  0.00  0.00    -0.216 OA
ENDROOT
BRANCH   1  17
ATOM      8  N1  UNL     1      -2.398  45.211  -3.245  0.00  0.00    -0.105 NA
ATOM      9  C1  UNL     1      -2.126  44.057  -4.043  0.00  0.00    +0.192 A 
ATOM     10  N2  UNL     1      -2.030  44.166  -5.402  0.00  0.00    -0.204 NA
ATOM     11  C2  UNL     1      -1.768  43.075  -6.192  0.00  0.00    +0.202 A 
ATOM     12  N3  UNL     1      -1.594  41.840  -5.633  0.00  0.00    -0.205 NA
ATOM     13  C3  UNL     1      -1.707  41.725  -4.285  0.00  0.00    +0.169 A 
ATOM     14  C4  UNL     1      -1.957  42.793  -3.487  0.00  0.00    +0.152 A 
ATOM     15  N4  UNL     1      -1.934  42.407  -2.199  0.00  0.00    -0.219 NA
ATOM     16  C5  UNL     1      -1.654  41.081  -2.253  0.00  0.00    +0.182 A 
ATOM     17  N5  UNL     1      -1.522  40.627  -3.528  0.00  0.00    -0.269 N 
ENDBRANCH   1  17
BRANCH   3  18
ATOM     18  C8  UNL     1      -2.235  37.087  -1.753  0.00  0.00    +0.090 C 
BRANCH  18  19
ATOM     19  S1  UNL     1      -4.041  37.392  -1.818  0.00  0.00    -0.138 S 
BRANCH  19  20
ATOM     20  C9  UNL     1      -4.041  38.843  -0.705  0.00  0.00    +0.060 C 
BRANCH  20  21
ATOM     21  C10 UNL     1      -5.027  39.904  -1.210  0.00  0.00    +0.042 C 
BRANCH  21  22
ATOM     22  C11 UNL     1      -5.942  40.421  -0.086  0.00  0.00    +0.195 C 
ATOM     23  N6  UNL     1      -7.310  39.929  -0.269  0.00  0.00    -0.121 NA
BRANCH  22  24
ATOM     24  C12 UNL     1      -5.924  41.925  -0.047  0.00  0.00    +0.382 C 
ATOM     25  O2  UNL     1      -5.020  42.563  -0.652  0.00  0.00    -0.244 OA
ATOM     26  O3  UNL     1      -6.901  42.622   0.655  0.00  0.00    -0.244 OA
ENDBRANCH  22  24
ENDBRANCH  21  22
ENDBRANCH  20  21
ENDBRANCH  19  20
ENDBRANCH  18  19
ENDBRANCH   3  18
TORSDOF 7
ENDMDL
MODEL 3
REMARK VINA RESULT:      -6.9      1.330      2.203
REMARK  Name = ./threeLigTest/pdb/l2c4.pdb
REMARK  7 active torsions:
REMARK  status: ('A' for Active; 'I' for Inactive)
REMARK    1  A    between atoms: N5_10  and  C6_11
REMARK    2  A    between atoms: C7_13  and  C8_14
REMARK    3  A    between atoms: C8_14  and  S1_15
REMARK    4  A    between atoms: S1_15  and  C9_16
REMARK    5  A    between atoms: C9_16  and  C10_17
REMARK    6  A    between atoms: C10_17  and  C11_18
REMARK    7  A    between atoms: C11_18  and  C12_20
REMARK                            x       y       z     vdW  Elec       q    Type
REMARK                         _______ _______ _______ _____ _____    ______ ____
ROOT
ATOM      1  C6  UNL     1      -1.473  38.864  -2.323  0.00  0.00    +0.241 C 
ATOM      2  O1  UNL     1      -2.637  38.089  -2.519  0.00  0.00    -0.332 OA
ATOM      3  C7  UNL     1      -3.236  37.867  -1.259  0.00  0.00    +0.161 C 
ATOM      4  C13 UNL     1      -2.295  38.376  -0.163  0.00  0.00    +0.214 C 
ATOM      5  O4  UNL     1      -1.481  37.326   0.298  0.00  0.00    -0.218 OA
ATOM      6  C14 UNL     1      -1.468  39.397  -0.898  0.00  0.00    +0.234 C 
ATOM      7  O5  UNL     1      -0.160  39.489  -0.396  0.00  0.00    -0.216 OA
ENDROOT
BRANCH   1  17
ATOM      8  N1  UNL     1      -2.367  43.799  -5.798  0.00  0.00    -0.105 NA
ATOM      9  C1  UNL     1      -2.543  43.040  -4.600  0.00  0.00    +0.192 A 
ATOM     10  N2  UNL     1      -3.353  43.505  -3.602  0.00  0.00    -0.204 NA
ATOM     11  C2  UNL     1      -3.540  42.795  -2.443  0.00  0.00    +0.202 A 
ATOM     12  N3  UNL     1      -2.916  41.594  -2.255  0.00  0.00    -0.205 NA
ATOM     13  C3  UNL     1      -2.097  41.138  -3.238  0.00  0.00    +0.169 A 
ATOM     14  C4  UNL     1      -1.905  41.820  -4.394  0.00  0.00    +0.152 A 
ATOM     15  N4  UNL     1      -1.118  41.103  -5.215  0.00  0.00    -0.219 NA
ATOM     16  C5  UNL     1      -0.853  39.970  -4.517  0.00  0.00    +0.182 A 
ATOM     17  N5  UNL     1      -1.432  39.968  -3.286  0.00  0.00    -0.269 N 
ENDBRANCH   1  17
BRANCH   3  18
ATOM     18  C8  UNL     1      -4.596  38.578  -1.225  0.00  0.00    +0.090 C 
BRANCH  18  19
ATOM     19  S1  UNL     1      -5.638  37.926   0.134  0.00  0.00    -0.138 S 
BRANCH  19  20
ATOM     20  C9  UNL     1      -7.146  38.866  -0.299  0.00  0.00    +0.060 C 
BRANCH  20  21
ATOM     21  C10 UNL     1      -7.450  39.914   0.779  0.00  0.00    +0.042 C 
BRANCH  21  22
ATOM     22  C11 UNL     1      -7.246  41.348   0.260  0.00  0.00    +0.195 C 
ATOM     23  N6  UNL     1      -5.848  41.757   0.416  0.00  0.00    -0.121 NA
BRANCH  22  24
ATOM     24  C12 UNL     1      -8.159  42.300   0.986  0.00  0.00    +0.382 C 
ATOM     25  O2  UNL     1      -8.274  42.235   2.239  0.00  0.00    -0.244 OA
ATOM     26  O3  UNL     1      -8.880  43.257   0.280  0.00  0.00    -0.244 OA
ENDBRANCH  22  24
ENDBRANCH  21  22
ENDBRANCH  20  21
ENDBRANCH  19  20
ENDBRANCH  18  19
ENDBRANCH   3  18
TORSDOF 7
ENDMDL
MODEL 4
REMARK VINA RESULT:      -6.8      2.482      3.227
REMARK  Name = ./threeLigTest/pdb/l2c4.pdb
REMARK  7 active torsions:
REMARK  status: ('A' for Active; 'I' for Inactive)
REMARK    1  A    between atoms: N5_10  and  C6_11
REMARK    2  A    between atoms: C7_13  and  C8_14
REMARK    3  A    between atoms: C8_14  and  S1_15
REMARK    4  A    between atoms: S1_15  and  C9_16
REMARK    5  A    between atoms: C9_16  and  C10_17
REMARK    6  A    between atoms: C10_17  and  C11_18
REMARK    7  A    between atoms: C11_18  and  C12_20
REMARK                            x       y       z     vdW  Elec       q    Type
REMARK                         _______ _______ _______ _____ _____    ______ ____
ROOT
ATOM      1  C6  UNL     1      -1.027  39.171  -3.981  0.00  0.00    +0.241 C 
ATOM      2  O1  UNL     1      -2.004  38.164  -3.823  0.00  0.00    -0.332 OA
ATOM      3  C7  UNL     1      -1.364  37.002  -3.337  0.00  0.00    +0.161 C 
ATOM      4  C13 UNL     1       0.152  37.221  -3.361  0.00  0.00    +0.214 C 
ATOM      5  O4  UNL     1       0.690  36.734  -4.565  0.00  0.00    -0.218 OA
ATOM      6  C14 UNL     1       0.260  38.722  -3.308  0.00  0.00    +0.234 C 
ATOM      7  O5  UNL     1       1.386  39.203  -3.996  0.00  0.00    -0.216 OA
ENDROOT
BRANCH   1  17
ATOM      8  N1  UNL     1      -2.529  44.919  -2.586  0.00  0.00    -0.105 NA
ATOM      9  C1  UNL     1      -2.217  43.876  -3.513  0.00  0.00    +0.192 A 
ATOM     10  N2  UNL     1      -2.122  44.146  -4.849  0.00  0.00    -0.204 NA
ATOM     11  C2  UNL     1      -1.824  43.164  -5.759  0.00  0.00    +0.202 A 
ATOM     12  N3  UNL     1      -1.610  41.878  -5.348  0.00  0.00    -0.205 NA
ATOM     13  C3  UNL     1      -1.721  41.603  -4.023  0.00  0.00    +0.169 A 
ATOM     14  C4  UNL     1      -2.008  42.561  -3.107  0.00  0.00    +0.152 A 
ATOM     15  N4  UNL     1      -1.974  42.029  -1.873  0.00  0.00    -0.219 NA
ATOM     16  C5  UNL     1      -1.650  40.728  -2.080  0.00  0.00    +0.182 A 
ATOM     17  N5  UNL     1      -1.501  40.430  -3.399  0.00  0.00    -0.269 N 
ENDBRANCH   1  17
BRANCH   3  18
ATOM     18  C8  UNL     1      -1.880  36.707  -1.921  0.00  0.00    +0.090 C 
BRANCH  18  19
ATOM     19  S1  UNL     1      -3.535  37.452  -1.664  0.00  0.00    -0.138 S 
BRANCH  19  20
ATOM     20  C9  UNL     1      -4.185  36.129  -0.581  0.00  0.00    +0.060 C 
BRANCH  20  21
ATOM     21  C10 UNL     1      -5.690  36.320  -0.350  0.00  0.00    +0.042 C 
BRANCH  21  22
ATOM     22  C11 UNL     1      -5.974  37.259   0.835  0.00  0.00    +0.195 C 
ATOM     23  N6  UNL     1      -6.067  36.499   2.084  0.00  0.00    -0.121 NA
BRANCH  22  24
ATOM     24  C12 UNL     1      -7.242  38.034   0.593  0.00  0.00    +0.382 C 
ATOM     25  O2  UNL     1      -8.316  37.426   0.339  0.00  0.00    -0.244 OA
ATOM     26  O3  UNL     1      -7.237  39.424   0.649  0.00  0.00    -0.244 OA
ENDBRANCH  22  24
ENDBRANCH  21  22
ENDBRANCH  20  21
ENDBRANCH  19  20
ENDBRANCH  18  19
ENDBRANCH   3  18
TORSDOF 7
ENDMDL
MODEL 5
REMARK VINA RESULT:      -6.4      1.689      2.693
REMARK  Name = ./threeLigTest/pdb/l2c4.pdb
REMARK  7 active torsions:
REMARK  status: ('A' for Active; 'I' for Inactive)
REMARK    1  A    between atoms: N5_10  and  C6_11
REMARK    2  A    between atoms: C7_13  and  C8_14
REMARK    3  A    between atoms: C8_14  and  S1_15
REMARK    4  A    between atoms: S1_15  and  C9_16
REMARK    5  A    between atoms: C9_16  and  C10_17
REMARK    6  A    between atoms: C10_17  and  C11_18
REMARK    7  A    between atoms: C11_18  and  C12_20
REMARK                            x       y       z     vdW  Elec       q    Type
REMARK                         _______ _______ _______ _____ _____    ______ ____
ROOT
ATOM      1  C6  UNL     1      -0.388  38.572  -4.476  0.00  0.00    +0.241 C 
ATOM      2  O1  UNL     1      -1.527  38.235  -3.713  0.00  0.00    -0.332 OA
ATOM      3  C7  UNL     1      -1.097  37.873  -2.416  0.00  0.00    +0.161 C 
ATOM      4  C13 UNL     1       0.433  37.794  -2.403  0.00  0.00    +0.214 C 
ATOM      5  O4  UNL     1       0.849  36.476  -2.657  0.00  0.00    -0.218 OA
ATOM      6  C14 UNL     1       0.812  38.694  -3.548  0.00  0.00    +0.234 C 
ATOM      7  O5  UNL     1       1.991  38.280  -4.189  0.00  0.00    -0.216 OA
ENDROOT
BRANCH   1  17
ATOM      8  N1  UNL     1      -2.066  44.076  -6.506  0.00  0.00    -0.105 NA
ATOM      9  C1  UNL     1      -1.838  43.120  -5.468  0.00  0.00    +0.192 A 
ATOM     10  N2  UNL     1      -2.148  43.421  -4.172  0.00  0.00    -0.204 NA
ATOM     11  C2  UNL     1      -1.940  42.521  -3.158  0.00  0.00    +0.202 A 
ATOM     12  N3  UNL     1      -1.414  41.287  -3.421  0.00  0.00    -0.205 NA
ATOM     13  C3  UNL     1      -1.089  40.991  -4.706  0.00  0.00    +0.169 A 
ATOM     14  C4  UNL     1      -1.294  41.864  -5.724  0.00  0.00    +0.152 A 
ATOM     15  N4  UNL     1      -0.961  41.283  -6.889  0.00  0.00    -0.219 NA
ATOM     16  C5  UNL     1      -0.561  40.036  -6.538  0.00  0.00    +0.182 A 
ATOM     17  N5  UNL     1      -0.615  39.829  -5.194  0.00  0.00    -0.269 N 
ENDBRANCH   1  17
BRANCH   3  18
ATOM     18  C8  UNL     1      -1.628  38.905  -1.412  0.00  0.00    +0.090 C 
BRANCH  18  19
ATOM     19  S1  UNL     1      -2.917  38.166  -0.339  0.00  0.00    -0.138 S 
BRANCH  19  20
ATOM     20  C9  UNL     1      -4.351  38.837  -1.255  0.00  0.00    +0.060 C 
BRANCH  20  21
ATOM     21  C10 UNL     1      -4.426  40.361  -1.088  0.00  0.00    +0.042 C 
BRANCH  21  22
ATOM     22  C11 UNL     1      -5.525  40.777  -0.096  0.00  0.00    +0.195 C 
ATOM     23  N6  UNL     1      -6.772  40.064  -0.381  0.00  0.00    -0.121 NA
BRANCH  22  24
ATOM     24  C12 UNL     1      -5.743  42.265  -0.153  0.00  0.00    +0.382 C 
ATOM     25  O2  UNL     1      -5.031  42.981  -0.907  0.00  0.00    -0.244 OA
ATOM     26  O3  UNL     1      -6.731  42.861   0.625  0.00  0.00    -0.244 OA
ENDBRANCH  22  24
ENDBRANCH  21  22
ENDBRANCH  20  21
ENDBRANCH  19  20
ENDBRANCH  18  19
ENDBRANCH   3  18
TORSDOF 7
ENDMDL
MODEL 6
REMARK VINA RESULT:      -6.2      1.913      2.895
REMARK  Name = ./threeLigTest/pdb/l2c4.pdb
REMARK  7 active torsions:
REMARK  status: ('A' for Active; 'I' for Inactive)
REMARK    1  A    between atoms: N5_10  and  C6_11
REMARK    2  A    between atoms: C7_13  and  C8_14
REMARK    3  A    between atoms: C8_14  and  S1_15
REMARK    4  A    between atoms: S1_15  and  C9_16
REMARK    5  A    between atoms: C9_16  and  C10_17
REMARK    6  A    between atoms: C10_17  and  C11_18
REMARK    7  A    between atoms: C11_18  and  C12_20
REMARK                            x       y       z     vdW  Elec       q    Type
REMARK                         _______ _______ _______ _____ _____    ______ ____
ROOT
ATOM      1  C6  UNL     1      -0.966  38.681  -3.781  0.00  0.00    +0.241 C 
ATOM      2  O1  UNL     1      -2.218  38.113  -3.460  0.00  0.00    -0.332 OA
ATOM      3  C7  UNL     1      -2.074  37.376  -2.263  0.00  0.00    +0.161 C 
ATOM      4  C13 UNL     1      -0.589  37.315  -1.891  0.00  0.00    +0.214 C 
ATOM      5  O4  UNL     1      -0.011  36.143  -2.410  0.00  0.00    -0.218 OA
ATOM      6  C14 UNL     1      -0.033  38.527  -2.589  0.00  0.00    +0.234 C 
ATOM      7  O5  UNL     1       1.295  38.344  -3.007  0.00  0.00    -0.216 OA
ENDROOT
BRANCH   1  17
ATOM      8  N1  UNL     1      -2.296  44.622  -4.189  0.00  0.00    -0.105 NA
ATOM      9  C1  UNL     1      -2.092  43.413  -3.454  0.00  0.00    +0.192 A 
ATOM     10  N2  UNL     1      -2.306  43.382  -2.105  0.00  0.00    -0.204 NA
ATOM     11  C2  UNL     1      -2.119  42.234  -1.376  0.00  0.00    +0.202 A 
ATOM     12  N3  UNL     1      -1.710  41.082  -1.988  0.00  0.00    -0.205 NA
ATOM     13  C3  UNL     1      -1.479  41.115  -3.326  0.00  0.00    +0.169 A 
ATOM     14  C4  UNL     1      -1.666  42.237  -4.064  0.00  0.00    +0.152 A 
ATOM     15  N4  UNL     1      -1.444  41.963  -5.362  0.00  0.00    -0.219 NA
ATOM     16  C5  UNL     1      -1.128  40.644  -5.375  0.00  0.00    +0.182 A 
ATOM     17  N5  UNL     1      -1.127  40.095  -4.131  0.00  0.00    -0.269 N 
ENDBRANCH   1  17
BRANCH   3  18
ATOM     18  C8  UNL     1      -2.915  38.044  -1.166  0.00  0.00    +0.090 C 
BRANCH  18  19
ATOM     19  S1  UNL     1      -2.748  37.143   0.421  0.00  0.00    -0.138 S 
BRANCH  19  20
ATOM     20  C9  UNL     1      -4.523  36.751   0.618  0.00  0.00    +0.060 C 
BRANCH  20  21
ATOM     21  C10 UNL     1      -5.370  37.621  -0.322  0.00  0.00    +0.042 C 
BRANCH  21  22
ATOM     22  C11 UNL     1      -6.481  38.370   0.434  0.00  0.00    +0.195 C 
ATOM     23  N6  UNL     1      -7.692  37.548   0.514  0.00  0.00    -0.121 NA
BRANCH  22  24
ATOM     24  C12 UNL     1      -6.778  39.682  -0.241  0.00  0.00    +0.382 C 
ATOM     25  O2  UNL     1      -7.783  40.358   0.105  0.00  0.00    -0.244 OA
ATOM     26  O3  UNL     1      -5.947  40.156  -1.251  0.00  0.00    -0.244 OA
ENDBRANCH  22  24
ENDBRANCH  21  22
ENDBRANCH  20  21
ENDBRANCH  19  20
ENDBRANCH  18  19
ENDBRANCH   3  18
TORSDOF 7
ENDMDL
MODEL 7
REMARK VINA RESULT:      -5.9      3.795      5.061
REMARK  Name = ./threeLigTest/pdb/l2c4.pdb
REMARK  7 active torsions:
REMARK  status: ('A' for Active; 'I' for Inactive)
REMARK    1  A    between atoms: N5_10  and  C6_11
REMARK    2  A    between atoms: C7_13  and  C8_14
REMARK    3  A    between atoms: C8_14  and  S1_15
REMARK    4  A    between atoms: S1_15  and  C9_16
REMARK    5  A    between atoms: C9_16  and  C10_17
REMARK    6  A    between atoms: C10_17  and  C11_18
REMARK    7  A    between atoms: C11_18  and  C12_20
REMARK                            x       y       z     vdW  Elec       q    Type
REMARK                         _______ _______ _______ _____ _____    ______ ____
ROOT
ATOM      1  C6  UNL     1      -0.632  39.004  -4.639  0.00  0.00    +0.241 C 
ATOM      2  O1  UNL     1      -1.651  38.103  -4.257  0.00  0.00    -0.332 OA
ATOM      3  C7  UNL     1      -1.069  37.094  -3.458  0.00  0.00    +0.161 C 
ATOM      4  C13 UNL     1       0.455  37.255  -3.483  0.00  0.00    +0.214 C 
ATOM      5  O4  UNL     1       1.008  36.451  -4.494  0.00  0.00    -0.218 OA
ATOM      6  C14 UNL     1       0.618  38.712  -3.823  0.00  0.00    +0.234 C 
ATOM      7  O5  UNL     1       1.780  38.961  -4.572  0.00  0.00    -0.216 OA
ENDROOT
BRANCH   1  17
ATOM      8  N1  UNL     1      -2.936  44.312  -2.702  0.00  0.00    -0.105 NA
ATOM      9  C1  UNL     1      -2.415  42.999  -2.486  0.00  0.00    +0.192 A 
ATOM     10  N2  UNL     1      -2.378  42.470  -1.227  0.00  0.00    -0.204 NA
ATOM     11  C2  UNL     1      -1.885  41.211  -0.992  0.00  0.00    +0.202 A 
ATOM     12  N3  UNL     1      -1.415  40.446  -2.023  0.00  0.00    -0.205 NA
ATOM     13  C3  UNL     1      -1.435  40.976  -3.274  0.00  0.00    +0.169 A 
ATOM     14  C4  UNL     1      -1.925  42.215  -3.527  0.00  0.00    +0.152 A 
ATOM     15  N4  UNL     1      -1.898  42.447  -4.851  0.00  0.00    -0.219 NA
ATOM     16  C5  UNL     1      -1.385  41.308  -5.379  0.00  0.00    +0.182 A 
ATOM     17  N5  UNL     1      -1.075  40.385  -4.429  0.00  0.00    -0.269 N 
ENDBRANCH   1  17
BRANCH   3  18
ATOM     18  C8  UNL     1      -1.635  37.200  -2.035  0.00  0.00    +0.090 C 
BRANCH  18  19
ATOM     19  S1  UNL     1      -1.813  35.540  -1.280  0.00  0.00    -0.138 S 
BRANCH  19  20
ATOM     20  C9  UNL     1      -1.894  36.115   0.455  0.00  0.00    +0.060 C 
BRANCH  20  21
ATOM     21  C10 UNL     1      -1.715  37.638   0.521  0.00  0.00    +0.042 C 
BRANCH  21  22
ATOM     22  C11 UNL     1      -0.558  38.041   1.452  0.00  0.00    +0.195 C 
ATOM     23  N6  UNL     1      -1.011  39.026   2.437  0.00  0.00    -0.121 NA
BRANCH  22  24
ATOM     24  C12 UNL     1       0.591  38.589   0.649  0.00  0.00    +0.382 C 
ATOM     25  O2  UNL     1       1.262  37.827  -0.097  0.00  0.00    -0.244 OA
ATOM     26  O3  UNL     1       0.921  39.938   0.725  0.00  0.00    -0.244 OA
ENDBRANCH  22  24
ENDBRANCH  21  22
ENDBRANCH  20  21
ENDBRANCH  19  20
ENDBRANCH  18  19
ENDBRANCH   3  18
TORSDOF 7
ENDMDL
MODEL 8
REMARK VINA RESULT:      -5.6      3.462      4.215
REMARK  Name = ./threeLigTest/pdb/l2c4.pdb
REMARK  7 active torsions:
REMARK  status: ('A' for Active; 'I' for Inactive)
REMARK    1  A    between atoms: N5_10  and  C6_11
REMARK    2  A    between atoms: C7_13  and  C8_14
REMARK    3  A    between atoms: C8_14  and  S1_15
REMARK    4  A    between atoms: S1_15  and  C9_16
REMARK    5  A    between atoms: C9_16  and  C10_17
REMARK    6  A    between atoms: C10_17  and  C11_18
REMARK    7  A    between atoms: C11_18  and  C12_20
REMARK                            x       y       z     vdW  Elec       q    Type
REMARK                         _______ _______ _______ _____ _____    ______ ____
ROOT
ATOM      1  C6  UNL     1       0.227  38.376  -4.733  0.00  0.00    +0.241 C 
ATOM      2  O1  UNL     1      -0.873  37.627  -4.261  0.00  0.00    -0.332 OA
ATOM      3  C7  UNL     1      -0.564  37.158  -2.964  0.00  0.00    +0.161 C 
ATOM      4  C13 UNL     1       0.905  37.471  -2.659  0.00  0.00    +0.214 C 
ATOM      5  O4  UNL     1       1.712  36.371  -2.998  0.00  0.00    -0.218 OA
ATOM      6  C14 UNL     1       1.184  38.630  -3.578  0.00  0.00    +0.234 C 
ATOM      7  O5  UNL     1       2.516  38.654  -4.021  0.00  0.00    -0.216 OA
ENDROOT
BRANCH   1  17
ATOM      8  N1  UNL     1      -2.436  43.681  -6.144  0.00  0.00    -0.105 NA
ATOM      9  C1  UNL     1      -2.018  42.676  -5.218  0.00  0.00    +0.192 A 
ATOM     10  N2  UNL     1      -2.342  42.781  -3.894  0.00  0.00    -0.204 NA
ATOM     11  C2  UNL     1      -1.954  41.830  -2.985  0.00  0.00    +0.202 A 
ATOM     12  N3  UNL     1      -1.229  40.742  -3.384  0.00  0.00    -0.205 NA
ATOM     13  C3  UNL     1      -0.891  40.644  -4.696  0.00  0.00    +0.169 A 
ATOM     14  C4  UNL     1      -1.271  41.570  -5.611  0.00  0.00    +0.152 A 
ATOM     15  N4  UNL     1      -0.872  41.182  -6.835  0.00  0.00    -0.219 NA
ATOM     16  C5  UNL     1      -0.252  39.994  -6.623  0.00  0.00    +0.182 A 
ATOM     17  N5  UNL     1      -0.234  39.642  -5.309  0.00  0.00    -0.269 N 
ENDBRANCH   1  17
BRANCH   3  18
ATOM     18  C8  UNL     1      -1.515  37.821  -1.958  0.00  0.00    +0.090 C 
BRANCH  18  19
ATOM     19  S1  UNL     1      -1.453  36.961  -0.341  0.00  0.00    -0.138 S 
BRANCH  19  20
ATOM     20  C9  UNL     1      -2.909  35.892  -0.624  0.00  0.00    +0.060 C 
BRANCH  20  21
ATOM     21  C10 UNL     1      -4.069  36.713  -1.205  0.00  0.00    +0.042 C 
BRANCH  21  22
ATOM     22  C11 UNL     1      -5.342  36.594  -0.350  0.00  0.00    +0.195 C 
ATOM     23  N6  UNL     1      -5.057  36.931   1.047  0.00  0.00    -0.121 NA
BRANCH  22  24
ATOM     24  C12 UNL     1      -5.911  35.204  -0.452  0.00  0.00    +0.382 C 
ATOM     25  O2  UNL     1      -6.325  34.769  -1.559  0.00  0.00    -0.244 OA
ATOM     26  O3  UNL     1      -5.983  34.391   0.675  0.00  0.00    -0.244 OA
ENDBRANCH  22  24
ENDBRANCH  21  22
ENDBRANCH  20  21
ENDBRANCH  19  20
ENDBRANCH  18  19
ENDBRANCH   3  18
TORSDOF 7
ENDMDL
MODEL 9
REMARK VINA RESULT:      -5.5      3.151      4.569
REMARK  Name = ./threeLigTest/pdb/l2c4.pdb
REMARK  7 active torsions:
REMARK  status: ('A' for Active; 'I' for Inactive)
REMARK    1  A    between atoms: N5_10  and  C6_11
REMARK    2  A    between atoms: C7_13  and  C8_14
REMARK    3  A    between atoms: C8_14  and  S1_15
REMARK    4  A    between atoms: S1_15  and  C9_16
REMARK    5  A    between atoms: C9_16  and  C10_17
REMARK    6  A    between atoms: C10_17  and  C11_18
REMARK    7  A    between atoms: C11_18  and  C12_20
REMARK                            x       y       z     vdW  Elec       q    Type
REMARK                         _______ _______ _______ _____ _____    ______ ____
ROOT
ATOM      1  C6  UNL     1      -0.449  39.109  -4.840  0.00  0.00    +0.241 C 
ATOM      2  O1  UNL     1      -1.245  38.101  -4.253  0.00  0.00    -0.332 OA
ATOM      3  C7  UNL     1      -0.388  37.186  -3.601  0.00  0.00    +0.161 C 
ATOM      4  C13 UNL     1       1.064  37.529  -3.951  0.00  0.00    +0.214 C 
ATOM      5  O4  UNL     1       1.483  36.774  -5.060  0.00  0.00    -0.218 OA
ATOM      6  C14 UNL     1       0.972  38.987  -4.313  0.00  0.00    +0.234 C 
ATOM      7  O5  UNL     1       1.908  39.357  -5.292  0.00  0.00    -0.216 OA
ENDROOT
BRANCH   1  17
ATOM      8  N1  UNL     1      -3.181  44.060  -2.547  0.00  0.00    -0.105 NA
ATOM      9  C1  UNL     1      -2.559  42.779  -2.422  0.00  0.00    +0.192 A 
ATOM     10  N2  UNL     1      -2.488  42.162  -1.204  0.00  0.00    -0.204 NA
ATOM     11  C2  UNL     1      -1.898  40.933  -1.057  0.00  0.00    +0.202 A 
ATOM     12  N3  UNL     1      -1.362  40.286  -2.135  0.00  0.00    -0.205 NA
ATOM     13  C3  UNL     1      -1.415  40.904  -3.344  0.00  0.00    +0.169 A 
ATOM     14  C4  UNL     1      -2.001  42.116  -3.511  0.00  0.00    +0.152 A 
ATOM     15  N4  UNL     1      -1.983  42.448  -4.813  0.00  0.00    -0.219 NA
ATOM     16  C5  UNL     1      -1.378  41.395  -5.418  0.00  0.00    +0.182 A 
ATOM     17  N5  UNL     1      -1.002  40.431  -4.535  0.00  0.00    -0.269 N 
ENDBRANCH   1  17
BRANCH   3  18
ATOM     18  C8  UNL     1      -0.647  37.256  -2.090  0.00  0.00    +0.090 C 
BRANCH  18  19
ATOM     19  S1  UNL     1       0.160  35.855  -1.226  0.00  0.00    -0.138 S 
BRANCH  19  20
ATOM     20  C9  UNL     1      -1.381  34.973  -0.788  0.00  0.00    +0.060 C 
BRANCH  20  21
ATOM     21  C10 UNL     1      -2.602  35.732  -1.325  0.00  0.00    +0.042 C 
BRANCH  21  22
ATOM     22  C11 UNL     1      -3.614  36.054  -0.212  0.00  0.00    +0.195 C 
ATOM     23  N6  UNL     1      -4.968  35.676  -0.625  0.00  0.00    -0.121 NA
BRANCH  22  24
ATOM     24  C12 UNL     1      -3.558  37.516   0.138  0.00  0.00    +0.382 C 
ATOM     25  O2  UNL     1      -2.590  37.971   0.804  0.00  0.00    -0.244 OA
ATOM     26  O3  UNL     1      -4.573  38.375  -0.270  0.00  0.00    -0.244 OA
ENDBRANCH  22  24
ENDBRANCH  21  22
ENDBRANCH  20  21
ENDBRANCH  19  20
ENDBRANCH  18  19
ENDBRANCH   3  18
TORSDOF 7
ENDMDL
