REMARK  Name = ./data/interface_1/pdb/l0c0.pdb
REMARK  11 active torsions:
REMARK  status: ('A' for Active; 'I' for Inactive)
REMARK    1  A    between atoms: O1_2  and  C2_3
REMARK    2  A    between atoms: C5_6  and  C6_7
REMARK    3  A    between atoms: N2_9  and  C7_10
REMARK    4  A    between atoms: C19_23  and  O3_24
REMARK    5  A    between atoms: O3_24  and  C20_25
REMARK    6  A    between atoms: C20_25  and  C21_26
REMARK    7  A    between atoms: C21_26  and  C22_27
REMARK    8  A    between atoms: C22_27  and  C23_28
REMARK    9  A    between atoms: C23_28  and  O4_29
REMARK   10  A    between atoms: O4_29  and  C24_30
REMARK   11  A    between atoms: C27_33  and  C28_34
REMARK                            x       y       z     vdW  Elec       q    Type
REMARK                         _______ _______ _______ _____ _____    ______ ____
ROOT
ATOM      1  C2  UNL     1       1.573  -1.391   0.053  0.00  0.00    +0.172 A 
ATOM      2  C3  UNL     1       2.208  -0.142   0.147  0.00  0.00    +0.040 A 
ATOM      3  C4  UNL     1       1.484   0.995   0.507  0.00  0.00    +0.005 A 
ATOM      4  C5  UNL     1       0.105   0.919   0.780  0.00  0.00    +0.019 A 
ATOM      5  C18 UNL     1      -0.526  -0.334   0.674  0.00  0.00    +0.041 A 
ATOM      6  C19 UNL     1       0.198  -1.488   0.310  0.00  0.00    +0.172 A 
ENDROOT
BRANCH   4   7
ATOM      7  C6  UNL     1      -0.631   2.160   1.175  0.00  0.00    +0.084 C 
ATOM      8  N1  UNL     1       0.010   3.281   1.336  0.00  0.00    -0.180 NA
ATOM      9  N2  UNL     1      -0.860   4.316   1.670  0.00  0.00    -0.183 N 
ATOM     10  C14 UNL     1      -2.170   3.793   1.683  0.00  0.00    +0.249 C 
ATOM     11  O2  UNL     1      -3.203   4.481   1.905  0.00  0.00    -0.273 OA
ATOM     12  C15 UNL     1      -2.141   2.325   1.400  0.00  0.00    +0.107 C 
ATOM     13  C16 UNL     1      -2.650   1.569   2.641  0.00  0.00    +0.015 C 
ATOM     14  C17 UNL     1      -2.967   2.029   0.138  0.00  0.00    +0.015 C 
BRANCH   9  15
ATOM     15  C7  UNL     1      -0.467   5.721   1.799  0.00  0.00    +0.099 C 
ATOM     16  C8  UNL     1       0.631   5.867   2.882  0.00  0.00    +0.022 C 
ATOM     17  C9  UNL     1       2.077   5.750   2.369  0.00  0.00    +0.002 C 
ATOM     18  C10 UNL     1       2.635   7.099   1.888  0.00  0.00    +0.000 C 
ATOM     19  C11 UNL     1       2.113   7.526   0.511  0.00  0.00    +0.000 C 
ATOM     20  C12 UNL     1       0.583   7.654   0.444  0.00  0.00    +0.002 C 
ATOM     21  C13 UNL     1      -0.113   6.284   0.406  0.00  0.00    +0.022 C 
ENDBRANCH   9  15
ENDBRANCH   4   7
BRANCH   1  23
ATOM     22  C1  UNL     1       3.677  -2.612  -0.527  0.00  0.00    +0.253 C 
ATOM     23  O1  UNL     1       2.275  -2.559  -0.285  0.00  0.00    -0.468 OA
ENDBRANCH   1  23
BRANCH   6  24
ATOM     24  O3  UNL     1      -0.404  -2.755   0.207  0.00  0.00    -0.472 OA
BRANCH  24  25
ATOM     25  C20 UNL     1      -1.798  -3.036   0.351  0.00  0.00    +0.206 C 
BRANCH  25  26
ATOM     26  C21 UNL     1      -2.599  -2.589  -0.883  0.00  0.00    +0.051 C 
BRANCH  26  27
ATOM     27  C22 UNL     1      -2.040  -3.118  -2.216  0.00  0.00    +0.051 C 
BRANCH  27  28
ATOM     28  C23 UNL     1      -2.184  -4.639  -2.379  0.00  0.00    +0.206 C 
BRANCH  28  29
ATOM     29  O4  UNL     1      -1.220  -5.344  -1.597  0.00  0.00    -0.475 OA
BRANCH  29  30
ATOM     30  C24 UNL     1       0.151  -5.447  -1.887  0.00  0.00    +0.139 A 
ATOM     31  C25 UNL     1       0.976  -6.082  -0.954  0.00  0.00    +0.037 A 
ATOM     32  C26 UNL     1       2.344  -6.227  -1.194  0.00  0.00    +0.006 A 
ATOM     33  C27 UNL     1       2.913  -5.735  -2.380  0.00  0.00    +0.040 A 
ATOM     34  C29 UNL     1       2.088  -5.090  -3.316  0.00  0.00    +0.006 A 
ATOM     35  C30 UNL     1       0.719  -4.947  -3.075  0.00  0.00    +0.037 A 
BRANCH  33  36
ATOM     36  C28 UNL     1       4.362  -5.881  -2.634  0.00  0.00    +0.208 A 
ATOM     37  N3  UNL     1       4.990  -5.451  -3.744  0.00  0.00    -0.106 NA
ATOM     38  N4  UNL     1       6.260  -5.770  -3.558  0.00  0.00    -0.021 NA
ATOM     39  N5  UNL     1       6.404  -6.366  -2.385  0.00  0.00    -0.021 NA
ATOM     40  N6  UNL     1       5.232  -6.451  -1.779  0.00  0.00    -0.106 NA
ENDBRANCH  33  36
ENDBRANCH  29  30
ENDBRANCH  28  29
ENDBRANCH  27  28
ENDBRANCH  26  27
ENDBRANCH  25  26
ENDBRANCH  24  25
ENDBRANCH   6  24
TORSDOF 11
