REMARK  Name = ./data/interface_1/pdb/l0c1.pdb
REMARK  11 active torsions:
REMARK  status: ('A' for Active; 'I' for Inactive)
REMARK    1  A    between atoms: O1_2  and  C2_3
REMARK    2  A    between atoms: C5_6  and  C6_7
REMARK    3  A    between atoms: N2_9  and  C7_10
REMARK    4  A    between atoms: C19_23  and  O3_24
REMARK    5  A    between atoms: O3_24  and  C20_25
REMARK    6  A    between atoms: C20_25  and  C21_26
REMARK    7  A    between atoms: C21_26  and  C22_27
REMARK    8  A    between atoms: C22_27  and  C23_28
REMARK    9  A    between atoms: C23_28  and  O4_29
REMARK   10  A    between atoms: O4_29  and  C24_30
REMARK   11  A    between atoms: C27_33  and  C28_34
REMARK                            x       y       z     vdW  Elec       q    Type
REMARK                         _______ _______ _______ _____ _____    ______ ____
ROOT
ATOM      1  C2  UNL     1       0.598  -1.417   3.009  0.00  0.00    +0.172 A 
ATOM      2  C3  UNL     1      -0.413  -2.150   3.655  0.00  0.00    +0.040 A 
ATOM      3  C4  UNL     1      -1.708  -2.184   3.136  0.00  0.00    +0.005 A 
ATOM      4  C5  UNL     1      -2.034  -1.472   1.970  0.00  0.00    +0.019 A 
ATOM      5  C18 UNL     1      -1.030  -0.697   1.357  0.00  0.00    +0.041 A 
ATOM      6  C19 UNL     1       0.288  -0.689   1.853  0.00  0.00    +0.172 A 
ENDROOT
BRANCH   4   7
ATOM      7  C6  UNL     1      -3.378  -1.566   1.325  0.00  0.00    +0.086 C 
ATOM      8  N1  UNL     1      -3.665  -0.857   0.281  0.00  0.00    -0.171 NA
ATOM      9  N2  UNL     1      -4.901  -1.240  -0.238  0.00  0.00    -0.222 N 
ATOM     10  C14 UNL     1      -5.407  -2.183   0.483  0.00  0.00    +0.257 C 
ATOM     11  O2  UNL     1      -6.648  -2.761   0.223  0.00  0.00    -0.270 OA
ATOM     12  C15 UNL     1      -4.504  -2.545   1.628  0.00  0.00    +0.110 C 
ATOM     13  C16 UNL     1      -5.217  -2.237   2.955  0.00  0.00    +0.015 C 
ATOM     14  C17 UNL     1      -4.069  -4.014   1.510  0.00  0.00    +0.015 C 
BRANCH   9  15
ATOM     15  C7  UNL     1      -5.551  -0.591  -1.384  0.00  0.00    +0.108 C 
ATOM     16  C8  UNL     1      -6.554   0.463  -0.864  0.00  0.00    +0.024 C 
ATOM     17  C9  UNL     1      -7.077   1.422  -1.947  0.00  0.00    +0.002 C 
ATOM     18  C10 UNL     1      -6.205   2.681  -2.071  0.00  0.00    +0.000 C 
ATOM     19  C11 UNL     1      -4.865   2.441  -2.779  0.00  0.00    +0.000 C 
ATOM     20  C12 UNL     1      -3.990   1.369  -2.107  0.00  0.00    +0.002 C 
ATOM     21  C13 UNL     1      -4.497  -0.059  -2.390  0.00  0.00    +0.024 C 
ENDBRANCH   9  15
ENDBRANCH   4   7
BRANCH   1  23
ATOM     22  C1  UNL     1       2.388  -2.131   4.605  0.00  0.00    +0.253 C 
ATOM     23  O1  UNL     1       1.921  -1.396   3.480  0.00  0.00    -0.468 OA
ENDBRANCH   1  23
BRANCH   6  24
ATOM     24  O3  UNL     1       1.324   0.007   1.208  0.00  0.00    -0.472 OA
BRANCH  24  25
ATOM     25  C20 UNL     1       1.166   0.829   0.051  0.00  0.00    +0.206 C 
BRANCH  25  26
ATOM     26  C21 UNL     1       2.536   1.233  -0.492  0.00  0.00    +0.051 C 
BRANCH  26  27
ATOM     27  C22 UNL     1       3.365   2.008   0.542  0.00  0.00    +0.051 C 
BRANCH  27  28
ATOM     28  C23 UNL     1       4.740   2.385  -0.015  0.00  0.00    +0.206 C 
BRANCH  28  29
ATOM     29  O4  UNL     1       5.456   1.206  -0.377  0.00  0.00    -0.475 OA
BRANCH  29  30
ATOM     30  C24 UNL     1       6.744   1.192  -0.928  0.00  0.00    +0.139 A 
ATOM     31  C25 UNL     1       7.273  -0.035  -1.340  0.00  0.00    +0.037 A 
ATOM     32  C26 UNL     1       8.553  -0.108  -1.897  0.00  0.00    +0.006 A 
ATOM     33  C27 UNL     1       9.336   1.050  -2.033  0.00  0.00    +0.040 A 
ATOM     34  C29 UNL     1       8.806   2.285  -1.618  0.00  0.00    +0.006 A 
ATOM     35  C30 UNL     1       7.517   2.359  -1.078  0.00  0.00    +0.037 A 
BRANCH  33  36
ATOM     36  C28 UNL     1      10.696   0.972  -2.604  0.00  0.00    +0.208 A 
ATOM     37  N3  UNL     1      11.553   2.008  -2.683  0.00  0.00    -0.106 NA
ATOM     38  N4  UNL     1      12.636   1.505  -3.250  0.00  0.00    -0.021 NA
ATOM     39  N5  UNL     1      12.451   0.221  -3.512  0.00  0.00    -0.021 NA
ATOM     40  N6  UNL     1      11.243  -0.146  -3.116  0.00  0.00    -0.106 NA
ENDBRANCH  33  36
ENDBRANCH  29  30
ENDBRANCH  28  29
ENDBRANCH  27  28
ENDBRANCH  26  27
ENDBRANCH  25  26
ENDBRANCH  24  25
ENDBRANCH   6  24
TORSDOF 11
