REMARK  Name = ./data/interface_1/pdb/l0c2.pdb
REMARK  11 active torsions:
REMARK  status: ('A' for Active; 'I' for Inactive)
REMARK    1  A    between atoms: O1_2  and  C2_3
REMARK    2  A    between atoms: C5_6  and  C6_7
REMARK    3  A    between atoms: N2_9  and  C7_10
REMARK    4  A    between atoms: C19_23  and  O3_24
REMARK    5  A    between atoms: O3_24  and  C20_25
REMARK    6  A    between atoms: C20_25  and  C21_26
REMARK    7  A    between atoms: C21_26  and  C22_27
REMARK    8  A    between atoms: C22_27  and  C23_28
REMARK    9  A    between atoms: C23_28  and  O4_29
REMARK   10  A    between atoms: O4_29  and  C24_30
REMARK   11  A    between atoms: C27_33  and  C28_34
REMARK                            x       y       z     vdW  Elec       q    Type
REMARK                         _______ _______ _______ _____ _____    ______ ____
ROOT
ATOM      1  C2  UNL     1      -2.117  -1.764   2.848  0.00  0.00    +0.172 A 
ATOM      2  C3  UNL     1      -2.224  -0.948   3.986  0.00  0.00    +0.040 A 
ATOM      3  C4  UNL     1      -1.897   0.408   3.923  0.00  0.00    +0.005 A 
ATOM      4  C5  UNL     1      -1.465   0.989   2.720  0.00  0.00    +0.019 A 
ATOM      5  C18 UNL     1      -1.349   0.162   1.585  0.00  0.00    +0.041 A 
ATOM      6  C19 UNL     1      -1.669  -1.208   1.643  0.00  0.00    +0.172 A 
ENDROOT
BRANCH   4   7
ATOM      7  C6  UNL     1      -1.127   2.441   2.605  0.00  0.00    +0.084 C 
ATOM      8  N1  UNL     1      -0.872   2.964   1.442  0.00  0.00    -0.180 NA
ATOM      9  N2  UNL     1      -0.517   4.308   1.552  0.00  0.00    -0.183 N 
ATOM     10  C14 UNL     1      -0.487   4.624   2.928  0.00  0.00    +0.249 C 
ATOM     11  O2  UNL     1      -0.112   5.737   3.386  0.00  0.00    -0.273 OA
ATOM     12  C15 UNL     1      -0.943   3.453   3.741  0.00  0.00    +0.107 C 
ATOM     13  C16 UNL     1      -2.260   3.819   4.446  0.00  0.00    +0.015 C 
ATOM     14  C17 UNL     1       0.162   3.037   4.724  0.00  0.00    +0.015 C 
BRANCH   9  15
ATOM     15  C7  UNL     1       0.135   5.064   0.482  0.00  0.00    +0.099 C 
ATOM     16  C8  UNL     1       1.608   4.613   0.369  0.00  0.00    +0.022 C 
ATOM     17  C9  UNL     1       2.567   5.709  -0.125  0.00  0.00    +0.002 C 
ATOM     18  C10 UNL     1       2.079   6.566  -1.307  0.00  0.00    +0.000 C 
ATOM     19  C11 UNL     1       1.214   5.817  -2.336  0.00  0.00    +0.000 C 
ATOM     20  C12 UNL     1      -0.275   5.823  -1.954  0.00  0.00    +0.002 C 
ATOM     21  C13 UNL     1      -0.632   4.833  -0.839  0.00  0.00    +0.022 C 
ENDBRANCH   9  15
ENDBRANCH   4   7
BRANCH   1  23
ATOM     22  C1  UNL     1      -2.929  -3.821   4.021  0.00  0.00    +0.253 C 
ATOM     23  O1  UNL     1      -2.442  -3.130   2.874  0.00  0.00    -0.468 OA
ENDBRANCH   1  23
BRANCH   6  24
ATOM     24  O3  UNL     1      -1.556  -2.047   0.522  0.00  0.00    -0.472 OA
BRANCH  24  25
ATOM     25  C20 UNL     1      -1.021  -1.642  -0.736  0.00  0.00    +0.206 C 
BRANCH  25  26
ATOM     26  C21 UNL     1      -1.058  -2.814  -1.716  0.00  0.00    +0.051 C 
BRANCH  26  27
ATOM     27  C22 UNL     1      -0.414  -2.425  -3.054  0.00  0.00    +0.051 C 
BRANCH  27  28
ATOM     28  C23 UNL     1      -0.550  -3.538  -4.101  0.00  0.00    +0.206 C 
BRANCH  28  29
ATOM     29  O4  UNL     1       0.051  -4.757  -3.660  0.00  0.00    -0.475 OA
BRANCH  29  30
ATOM     30  C24 UNL     1       1.427  -5.038  -3.654  0.00  0.00    +0.139 A 
ATOM     31  C25 UNL     1       1.835  -6.307  -3.228  0.00  0.00    +0.037 A 
ATOM     32  C26 UNL     1       3.189  -6.650  -3.208  0.00  0.00    +0.006 A 
ATOM     33  C27 UNL     1       4.163  -5.716  -3.598  0.00  0.00    +0.040 A 
ATOM     34  C29 UNL     1       3.757  -4.441  -4.021  0.00  0.00    +0.006 A 
ATOM     35  C30 UNL     1       2.400  -4.108  -4.063  0.00  0.00    +0.037 A 
BRANCH  33  36
ATOM     36  C28 UNL     1       5.596  -6.072  -3.563  0.00  0.00    +0.208 A 
ATOM     37  N3  UNL     1       6.068  -7.325  -3.416  0.00  0.00    -0.106 NA
ATOM     38  N4  UNL     1       7.384  -7.194  -3.446  0.00  0.00    -0.021 NA
ATOM     39  N5  UNL     1       7.706  -5.918  -3.603  0.00  0.00    -0.021 NA
ATOM     40  N6  UNL     1       6.606  -5.187  -3.684  0.00  0.00    -0.106 NA
ENDBRANCH  33  36
ENDBRANCH  29  30
ENDBRANCH  28  29
ENDBRANCH  27  28
ENDBRANCH  26  27
ENDBRANCH  25  26
ENDBRANCH  24  25
ENDBRANCH   6  24
TORSDOF 11
