REMARK  Name = ./data/interface_1/pdb/l1c0.pdb
REMARK  11 active torsions:
REMARK  status: ('A' for Active; 'I' for Inactive)
REMARK    1  A    between atoms: O1_2  and  C2_3
REMARK    2  A    between atoms: C5_6  and  C6_7
REMARK    3  A    between atoms: N2_9  and  C7_10
REMARK    4  A    between atoms: C22_26  and  O3_27
REMARK    5  A    between atoms: O3_27  and  C23_28
REMARK    6  A    between atoms: C23_28  and  C24_29
REMARK    7  A    between atoms: C24_29  and  C25_30
REMARK    8  A    between atoms: C25_30  and  C26_31
REMARK    9  A    between atoms: C26_31  and  O4_32
REMARK   10  A    between atoms: O4_32  and  C27_33
REMARK   11  A    between atoms: C30_36  and  C31_37
REMARK                            x       y       z     vdW  Elec       q    Type
REMARK                         _______ _______ _______ _____ _____    ______ ____
ROOT
ATOM      1  C2  UNL     1      -0.352  -3.572   0.694  0.00  0.00    +0.172 A 
ATOM      2  C3  UNL     1      -0.287  -3.588  -0.711  0.00  0.00    +0.040 A 
ATOM      3  C4  UNL     1      -0.641  -2.458  -1.449  0.00  0.00    +0.005 A 
ATOM      4  C5  UNL     1      -1.075  -1.290  -0.802  0.00  0.00    +0.018 A 
ATOM      5  C21 UNL     1      -1.170  -1.288   0.601  0.00  0.00    +0.041 A 
ATOM      6  C22 UNL     1      -0.797  -2.417   1.354  0.00  0.00    +0.172 A 
ENDROOT
BRANCH   4   7
ATOM      7  C6  UNL     1      -1.372  -0.048  -1.561  0.00  0.00    +0.077 C 
ATOM      8  N1  UNL     1      -1.177   1.099  -0.973  0.00  0.00    -0.180 NA
ATOM      9  N2  UNL     1      -1.466   2.340  -1.578  0.00  0.00    -0.183 N 
ATOM     10  C14 UNL     1      -1.733   2.383  -2.993  0.00  0.00    +0.244 C 
ATOM     11  O2  UNL     1      -2.027   3.468  -3.566  0.00  0.00    -0.273 OA
ATOM     12  C15 UNL     1      -1.582   1.106  -3.779  0.00  0.00    +0.089 C 
ATOM     13  C16 UNL     1      -2.311   1.115  -5.137  0.00  0.00    +0.035 C 
ATOM     14  C17 UNL     1      -3.797   0.906  -5.014  0.00  0.00    -0.030 C 
ATOM     15  C18 UNL     1      -4.353   0.278  -3.967  0.00  0.00    -0.030 C 
ATOM     16  C19 UNL     1      -3.588  -0.054  -2.713  0.00  0.00    +0.032 C 
ATOM     17  C20 UNL     1      -2.057  -0.083  -2.917  0.00  0.00    +0.055 C 
BRANCH   9  18
ATOM     18  C7  UNL     1      -1.546   3.539  -0.730  0.00  0.00    +0.099 C 
ATOM     19  C8  UNL     1      -2.826   3.466   0.131  0.00  0.00    +0.022 C 
ATOM     20  C9  UNL     1      -2.880   4.498   1.270  0.00  0.00    +0.002 C 
ATOM     21  C10 UNL     1      -2.263   3.958   2.571  0.00  0.00    +0.000 C 
ATOM     22  C11 UNL     1      -0.731   3.910   2.551  0.00  0.00    +0.000 C 
ATOM     23  C12 UNL     1      -0.159   3.038   1.425  0.00  0.00    +0.002 C 
ATOM     24  C13 UNL     1      -0.223   3.737   0.053  0.00  0.00    +0.022 C 
ENDBRANCH   9  18
ENDBRANCH   4   7
BRANCH   1  26
ATOM     25  C1  UNL     1       0.567  -5.884   0.941  0.00  0.00    +0.253 C 
ATOM     26  O1  UNL     1       0.033  -4.676   1.470  0.00  0.00    -0.468 OA
ENDBRANCH   1  26
BRANCH   6  27
ATOM     27  O3  UNL     1      -0.841  -2.432   2.759  0.00  0.00    -0.472 OA
BRANCH  27  28
ATOM     28  C23 UNL     1      -0.975  -1.286   3.605  0.00  0.00    +0.206 C 
BRANCH  28  29
ATOM     29  C24 UNL     1       0.246  -0.361   3.507  0.00  0.00    +0.051 C 
BRANCH  29  30
ATOM     30  C25 UNL     1       1.561  -1.114   3.766  0.00  0.00    +0.051 C 
BRANCH  30  31
ATOM     31  C26 UNL     1       2.794  -0.239   3.489  0.00  0.00    +0.206 C 
BRANCH  31  32
ATOM     32  O4  UNL     1       2.732   0.379   2.201  0.00  0.00    -0.475 OA
BRANCH  32  33
ATOM     33  C27 UNL     1       2.727  -0.296   0.970  0.00  0.00    +0.139 A 
ATOM     34  C28 UNL     1       3.109  -1.643   0.838  0.00  0.00    +0.037 A 
ATOM     35  C29 UNL     1       3.037  -2.277  -0.406  0.00  0.00    +0.006 A 
ATOM     36  C30 UNL     1       2.594  -1.577  -1.542  0.00  0.00    +0.040 A 
ATOM     37  C32 UNL     1       2.243  -0.222  -1.409  0.00  0.00    +0.006 A 
ATOM     38  C33 UNL     1       2.317   0.409  -0.165  0.00  0.00    +0.037 A 
BRANCH  36  39
ATOM     39  C31 UNL     1       2.485  -2.275  -2.845  0.00  0.00    +0.208 A 
ATOM     40  N3  UNL     1       2.819  -3.565  -3.044  0.00  0.00    -0.106 NA
ATOM     41  N4  UNL     1       2.544  -3.802  -4.319  0.00  0.00    -0.021 NA
ATOM     42  N5  UNL     1       2.057  -2.709  -4.886  0.00  0.00    -0.021 NA
ATOM     43  N6  UNL     1       2.010  -1.743  -3.986  0.00  0.00    -0.106 NA
ENDBRANCH  36  39
ENDBRANCH  32  33
ENDBRANCH  31  32
ENDBRANCH  30  31
ENDBRANCH  29  30
ENDBRANCH  28  29
ENDBRANCH  27  28
ENDBRANCH   6  27
TORSDOF 11
