REMARK  Name = ./data/interface_1/pdb/l1c1.pdb
REMARK  11 active torsions:
REMARK  status: ('A' for Active; 'I' for Inactive)
REMARK    1  A    between atoms: O1_2  and  C2_3
REMARK    2  A    between atoms: C5_6  and  C6_7
REMARK    3  A    between atoms: N2_9  and  C7_10
REMARK    4  A    between atoms: C22_26  and  O3_27
REMARK    5  A    between atoms: O3_27  and  C23_28
REMARK    6  A    between atoms: C23_28  and  C24_29
REMARK    7  A    between atoms: C24_29  and  C25_30
REMARK    8  A    between atoms: C25_30  and  C26_31
REMARK    9  A    between atoms: C26_31  and  O4_32
REMARK   10  A    between atoms: O4_32  and  C27_33
REMARK   11  A    between atoms: C30_36  and  C31_37
REMARK                            x       y       z     vdW  Elec       q    Type
REMARK                         _______ _______ _______ _____ _____    ______ ____
ROOT
ATOM      1  C2  UNL     1       4.669   1.772   0.100  0.00  0.00    +0.172 A 
ATOM      2  C3  UNL     1       4.329   2.681   1.118  0.00  0.00    +0.040 A 
ATOM      3  C4  UNL     1       3.035   2.705   1.641  0.00  0.00    +0.005 A 
ATOM      4  C5  UNL     1       2.045   1.830   1.160  0.00  0.00    +0.018 A 
ATOM      5  C21 UNL     1       2.388   0.938   0.126  0.00  0.00    +0.041 A 
ATOM      6  C22 UNL     1       3.693   0.900  -0.403  0.00  0.00    +0.172 A 
ENDROOT
BRANCH   4   7
ATOM      7  C6  UNL     1       0.683   1.834   1.774  0.00  0.00    +0.077 C 
ATOM      8  N1  UNL     1       0.527   2.394   2.942  0.00  0.00    -0.180 NA
ATOM      9  N2  UNL     1      -0.701   2.410   3.638  0.00  0.00    -0.183 N 
ATOM     10  C14 UNL     1      -1.915   2.108   2.922  0.00  0.00    +0.244 C 
ATOM     11  O2  UNL     1      -3.036   2.186   3.493  0.00  0.00    -0.273 OA
ATOM     12  C15 UNL     1      -1.812   1.815   1.448  0.00  0.00    +0.089 C 
ATOM     13  C16 UNL     1      -3.012   1.027   0.883  0.00  0.00    +0.035 C 
ATOM     14  C17 UNL     1      -2.960  -0.445   1.197  0.00  0.00    -0.030 C 
ATOM     15  C18 UNL     1      -1.813  -1.086   1.462  0.00  0.00    -0.030 C 
ATOM     16  C19 UNL     1      -0.513  -0.367   1.716  0.00  0.00    +0.032 C 
ATOM     17  C20 UNL     1      -0.487   1.077   1.157  0.00  0.00    +0.055 C 
BRANCH   9  18
ATOM     18  C7  UNL     1      -0.736   2.919   5.018  0.00  0.00    +0.099 C 
ATOM     19  C8  UNL     1       0.489   2.402   5.809  0.00  0.00    +0.022 C 
ATOM     20  C9  UNL     1       0.306   2.526   7.332  0.00  0.00    +0.002 C 
ATOM     21  C10 UNL     1       0.755   3.874   7.928  0.00  0.00    +0.000 C 
ATOM     22  C11 UNL     1       0.474   5.121   7.072  0.00  0.00    +0.000 C 
ATOM     23  C12 UNL     1      -0.893   5.110   6.368  0.00  0.00    +0.002 C 
ATOM     24  C13 UNL     1      -0.821   4.456   4.979  0.00  0.00    +0.022 C 
ENDBRANCH   9  18
ENDBRANCH   4   7
BRANCH   1  26
ATOM     25  C1  UNL     1       7.053   2.521  -0.020  0.00  0.00    +0.253 C 
ATOM     26  O1  UNL     1       5.963   1.708  -0.443  0.00  0.00    -0.468 OA
ENDBRANCH   1  26
BRANCH   6  27
ATOM     27  O3  UNL     1       4.065  -0.001  -1.417  0.00  0.00    -0.472 OA
BRANCH  27  28
ATOM     28  C23 UNL     1       3.161  -0.752  -2.230  0.00  0.00    +0.206 C 
BRANCH  28  29
ATOM     29  C24 UNL     1       2.460   0.172  -3.233  0.00  0.00    +0.051 C 
BRANCH  29  30
ATOM     30  C25 UNL     1       1.328  -0.550  -3.973  0.00  0.00    +0.051 C 
BRANCH  30  31
ATOM     31  C26 UNL     1       0.772   0.324  -5.105  0.00  0.00    +0.206 C 
BRANCH  31  32
ATOM     32  O4  UNL     1      -0.477  -0.180  -5.579  0.00  0.00    -0.475 OA
BRANCH  32  33
ATOM     33  C27 UNL     1      -0.653  -1.282  -6.430  0.00  0.00    +0.139 A 
ATOM     34  C28 UNL     1      -1.959  -1.632  -6.787  0.00  0.00    +0.037 A 
ATOM     35  C29 UNL     1      -2.200  -2.708  -7.645  0.00  0.00    +0.006 A 
ATOM     36  C30 UNL     1      -1.132  -3.462  -8.155  0.00  0.00    +0.040 A 
ATOM     37  C32 UNL     1       0.180  -3.119  -7.792  0.00  0.00    +0.006 A 
ATOM     38  C33 UNL     1       0.422  -2.033  -6.943  0.00  0.00    +0.037 A 
BRANCH  36  39
ATOM     39  C31 UNL     1      -1.387  -4.593  -9.069  0.00  0.00    +0.208 A 
ATOM     40  N3  UNL     1      -2.587  -4.877  -9.613  0.00  0.00    -0.106 NA
ATOM     41  N4  UNL     1      -2.370  -5.939 -10.372  0.00  0.00    -0.021 NA
ATOM     42  N5  UNL     1      -1.095  -6.288 -10.298  0.00  0.00    -0.021 NA
ATOM     43  N6  UNL     1      -0.449  -5.463  -9.489  0.00  0.00    -0.106 NA
ENDBRANCH  36  39
ENDBRANCH  32  33
ENDBRANCH  31  32
ENDBRANCH  30  31
ENDBRANCH  29  30
ENDBRANCH  28  29
ENDBRANCH  27  28
ENDBRANCH   6  27
TORSDOF 11
