REMARK  Name = ./data/interface_1/pdb/l1c2.pdb
REMARK  11 active torsions:
REMARK  status: ('A' for Active; 'I' for Inactive)
REMARK    1  A    between atoms: O1_2  and  C2_3
REMARK    2  A    between atoms: C5_6  and  C6_7
REMARK    3  A    between atoms: N2_9  and  C7_10
REMARK    4  A    between atoms: C22_26  and  O3_27
REMARK    5  A    between atoms: O3_27  and  C23_28
REMARK    6  A    between atoms: C23_28  and  C24_29
REMARK    7  A    between atoms: C24_29  and  C25_30
REMARK    8  A    between atoms: C25_30  and  C26_31
REMARK    9  A    between atoms: C26_31  and  O4_32
REMARK   10  A    between atoms: O4_32  and  C27_33
REMARK   11  A    between atoms: C30_36  and  C31_37
REMARK                            x       y       z     vdW  Elec       q    Type
REMARK                         _______ _______ _______ _____ _____    ______ ____
ROOT
ATOM      1  C2  UNL     1      -1.148   1.574  -4.270  0.00  0.00    +0.172 A 
ATOM      2  C3  UNL     1      -1.157   0.180  -4.098  0.00  0.00    +0.040 A 
ATOM      3  C4  UNL     1      -1.208  -0.375  -2.820  0.00  0.00    +0.005 A 
ATOM      4  C5  UNL     1      -1.274   0.447  -1.679  0.00  0.00    +0.018 A 
ATOM      5  C21 UNL     1      -1.274   1.843  -1.859  0.00  0.00    +0.041 A 
ATOM      6  C22 UNL     1      -1.189   2.407  -3.146  0.00  0.00    +0.172 A 
ENDROOT
BRANCH   4   7
ATOM      7  C6  UNL     1      -1.361  -0.173  -0.325  0.00  0.00    +0.077 C 
ATOM      8  N1  UNL     1      -1.705  -1.428  -0.233  0.00  0.00    -0.180 NA
ATOM      9  N2  UNL     1      -1.833  -2.110   0.995  0.00  0.00    -0.183 N 
ATOM     10  C14 UNL     1      -1.279  -1.518   2.186  0.00  0.00    +0.244 C 
ATOM     11  O2  UNL     1      -1.361  -2.102   3.302  0.00  0.00    -0.273 OA
ATOM     12  C15 UNL     1      -0.523  -0.224   2.042  0.00  0.00    +0.089 C 
ATOM     13  C16 UNL     1      -0.392   0.575   3.353  0.00  0.00    +0.035 C 
ATOM     14  C17 UNL     1      -1.665   1.272   3.748  0.00  0.00    -0.030 C 
ATOM     15  C18 UNL     1      -2.589   1.637   2.847  0.00  0.00    -0.030 C 
ATOM     16  C19 UNL     1      -2.566   1.171   1.414  0.00  0.00    +0.032 C 
ATOM     17  C20 UNL     1      -1.186   0.641   0.951  0.00  0.00    +0.055 C 
BRANCH   9  18
ATOM     18  C7  UNL     1      -2.493  -3.424   1.010  0.00  0.00    +0.099 C 
ATOM     19  C8  UNL     1      -1.701  -4.430   0.137  0.00  0.00    +0.022 C 
ATOM     20  C9  UNL     1      -2.140  -4.516  -1.336  0.00  0.00    +0.002 C 
ATOM     21  C10 UNL     1      -3.291  -5.515  -1.543  0.00  0.00    +0.000 C 
ATOM     22  C11 UNL     1      -4.658  -4.974  -1.108  0.00  0.00    +0.000 C 
ATOM     23  C12 UNL     1      -4.718  -4.574   0.374  0.00  0.00    +0.002 C 
ATOM     24  C13 UNL     1      -3.984  -3.251   0.648  0.00  0.00    +0.022 C 
ENDBRANCH   9  18
ENDBRANCH   4   7
BRANCH   1  26
ATOM     25  C1  UNL     1      -1.009   1.452  -6.766  0.00  0.00    +0.253 C 
ATOM     26  O1  UNL     1      -1.082   2.170  -5.540  0.00  0.00    -0.468 OA
ENDBRANCH   1  26
BRANCH   6  27
ATOM     27  O3  UNL     1      -1.136   3.796  -3.347  0.00  0.00    -0.472 OA
BRANCH  27  28
ATOM     28  C23 UNL     1      -0.706   4.755  -2.377  0.00  0.00    +0.206 C 
BRANCH  28  29
ATOM     29  C24 UNL     1       0.757   4.522  -1.972  0.00  0.00    +0.051 C 
BRANCH  29  30
ATOM     30  C25 UNL     1       1.694   4.532  -3.188  0.00  0.00    +0.051 C 
BRANCH  30  31
ATOM     31  C26 UNL     1       3.148   4.223  -2.817  0.00  0.00    +0.206 C 
BRANCH  31  32
ATOM     32  O4  UNL     1       3.309   2.839  -2.490  0.00  0.00    -0.475 OA
BRANCH  32  33
ATOM     33  C27 UNL     1       3.224   2.262  -1.211  0.00  0.00    +0.139 A 
ATOM     34  C28 UNL     1       3.181   3.016  -0.025  0.00  0.00    +0.037 A 
ATOM     35  C29 UNL     1       3.135   2.376   1.218  0.00  0.00    +0.006 A 
ATOM     36  C30 UNL     1       3.132   0.972   1.307  0.00  0.00    +0.040 A 
ATOM     37  C32 UNL     1       3.147   0.225   0.115  0.00  0.00    +0.006 A 
ATOM     38  C33 UNL     1       3.196   0.867  -1.126  0.00  0.00    +0.037 A 
BRANCH  36  39
ATOM     39  C31 UNL     1       3.121   0.291   2.631  0.00  0.00    +0.208 A 
ATOM     40  N3  UNL     1       3.205  -1.040   2.828  0.00  0.00    -0.106 NA
ATOM     41  N4  UNL     1       3.142  -1.226   4.137  0.00  0.00    -0.021 NA
ATOM     42  N5  UNL     1       3.023  -0.052   4.740  0.00  0.00    -0.021 NA
ATOM     43  N6  UNL     1       3.011   0.905   3.827  0.00  0.00    -0.106 NA
ENDBRANCH  36  39
ENDBRANCH  32  33
ENDBRANCH  31  32
ENDBRANCH  30  31
ENDBRANCH  29  30
ENDBRANCH  28  29
ENDBRANCH  27  28
ENDBRANCH   6  27
TORSDOF 11
