./data/cofactor_redock/pdb/l1c0.pdb
 OpenBabel11272014163D

 26 28  0  0  1  0  0  0  0  0999 V2000
   19.3240   59.4630   -7.7210 C   0  0  2  0  0  3  0  0  0  0  0  0
   19.7800   60.6750   -7.1520 O   0  0  0  0  0  0  0  0  0  0  0  0
   19.7920   60.5250   -5.7480 C   0  0  1  0  0  3  0  0  0  0  0  0
   19.7740   59.0340   -5.4240 C   0  0  1  0  0  3  0  0  0  0  0  0
   19.1170   58.7850   -4.2090 O   0  0  0  0  0  1  0  0  0  0  0  0
   19.0360   58.4530   -6.6060 C   0  0  1  0  0  3  0  0  0  0  0  0
   17.6510   58.3340   -6.3660 O   0  0  0  0  0  1  0  0  0  0  0  0
   23.1560   58.1040  -12.2530 N   0  0  0  0  0  1  0  0  0  0  0  0
   22.2600   58.9840  -11.5760 C   0  0  0  0  0  0  0  0  0  0  0  0
   21.9580   60.2090  -12.1020 N   0  0  0  0  0  0  0  0  0  0  0  0
   21.0890   61.0620  -11.4720 C   0  0  0  0  0  3  0  0  0  0  0  0
   20.4990   60.7050  -10.2910 N   0  0  0  0  0  0  0  0  0  0  0  0
   20.8090   59.4930   -9.7640 C   0  0  0  0  0  0  0  0  0  0  0  0
   21.6570   58.6320  -10.3730 C   0  0  0  0  0  0  0  0  0  0  0  0
   21.7520   57.4860   -9.6740 N   0  0  0  0  0  0  0  0  0  0  0  0
   20.9210   57.7070   -8.6190 C   0  0  0  0  0  3  0  0  0  0  0  0
   20.3380   58.9350   -8.6380 N   0  0  0  0  0  0  0  0  0  0  0  0
   21.0170   61.2430   -5.1690 C   0  0  0  0  0  2  0  0  0  0  0  0
   20.5940   62.1150   -3.6130 S   0  0  0  0  0  0  0  0  0  0  0  0
   19.4660   63.3620   -4.3380 C   0  0  0  0  0  2  0  0  0  0  0  0
   18.9560   64.3590   -3.2850 C   0  0  0  0  0  2  0  0  0  0  0  0
   19.3110   65.8300   -3.6080 C   0  0  2  0  0  3  0  0  0  0  0  0
   20.6940   66.1270   -3.2270 N   0  0  0  0  0  1  0  0  0  0  0  0
   18.3850   66.7870   -2.9120 C   0  0  0  0  0  0  0  0  0  0  0  0
   18.8390   67.6500   -2.1140 O   0  0  0  0  0  1  0  0  0  0  0  0
   17.0160   66.7160   -3.1380 O   0  0  0  0  0  0  0  0  0  0  0  0
  1 17  1  6  0  0  0
  1  2  1  0  0  0  0
  1  6  1  0  0  0  0
  2  3  1  0  0  0  0
  3  4  1  0  0  0  0
  3 18  1  6  0  0  0
  4  5  1  1  0  0  0
  6  7  1  1  0  0  0
  6  4  1  0  0  0  0
  8  9  1  0  0  0  0
  9 14  1  0  0  0  0
 10  9  2  0  0  0  0
 10 11  1  0  0  0  0
 11 12  2  0  0  0  0
 12 13  1  0  0  0  0
 13 17  1  0  0  0  0
 14 13  2  0  0  0  0
 14 15  1  0  0  0  0
 15 16  2  0  0  0  0
 17 16  1  0  0  0  0
 18 19  1  0  0  0  0
 20 19  1  0  0  0  0
 20 21  1  0  0  0  0
 22 21  1  0  0  0  0
 22 23  1  1  0  0  0
 22 24  1  0  0  0  0
 24 25  1  0  0  0  0
 26 24  2  0  0  0  0
M  END
>  <MODEL>
1

>  <REMARK>
 VINA RESULT:      -8.7      0.000      0.000
  Name = ./data/cofactor_redock/pdb/l1c0.pdb
  7 active torsions:
  status: ('A' for Active; 'I' for Inactive)
    1  A    between atoms: N5_10  and  C6_11
    2  A    between atoms: C7_13  and  C8_14
    3  A    between atoms: C8_14  and  S1_15
    4  A    between atoms: S1_15  and  C9_16
    5  A    between atoms: C9_16  and  C10_17
    6  A    between atoms: C10_17  and  C11_18
    7  A    between atoms: C11_18  and  C12_20
                            x       y       z     vdW  Elec       q    Type
                         _______ _______ _______ _____ _____    ______ ____

>  <TORSDO>
F 7

$$$$
./data/cofactor_redock/pdb/l1c0.pdb
 OpenBabel11272014163D

 26 28  0  0  1  0  0  0  0  0999 V2000
   18.8570   58.5480   -7.4300 C   0  0  2  0  0  3  0  0  0  0  0  0
   18.7090   59.8600   -6.9230 O   0  0  0  0  0  0  0  0  0  0  0  0
   18.9910   59.8320   -5.5410 C   0  0  1  0  0  3  0  0  0  0  0  0
   19.7780   58.5620   -5.2360 C   0  0  1  0  0  3  0  0  0  0  0  0
   19.5160   58.0980   -3.9370 O   0  0  0  0  0  1  0  0  0  0  0  0
   19.2810   57.6090   -6.2970 C   0  0  1  0  0  3  0  0  0  0  0  0
   18.1990   56.8250   -5.8470 O   0  0  0  0  0  1  0  0  0  0  0  0
   22.7830   57.3830  -11.9360 N   0  0  0  0  0  1  0  0  0  0  0  0
   21.6480   57.0620  -11.1340 C   0  0  0  0  0  0  0  0  0  0  0  0
   20.9790   55.8830  -11.3130 N   0  0  0  0  0  0  0  0  0  0  0  0
   19.8940   55.5520  -10.5440 C   0  0  0  0  0  3  0  0  0  0  0  0
   19.4500   56.4030   -9.5690 N   0  0  0  0  0  0  0  0  0  0  0  0
   20.1080   57.5780   -9.3990 C   0  0  0  0  0  0  0  0  0  0  0  0
   21.1860   57.9200  -10.1420 C   0  0  0  0  0  0  0  0  0  0  0  0
   21.6810   59.1050   -9.7410 N   0  0  0  0  0  0  0  0  0  0  0  0
   20.8440   59.4530   -8.7250 C   0  0  0  0  0  3  0  0  0  0  0  0
   19.8600   58.5420   -8.4990 N   0  0  0  0  0  0  0  0  0  0  0  0
   19.7480   61.1070   -5.1490 C   0  0  0  0  0  2  0  0  0  0  0  0
   18.5860   62.4860   -4.8170 S   0  0  0  0  0  0  0  0  0  0  0  0
   19.5040   63.2390   -3.4210 C   0  0  0  0  0  2  0  0  0  0  0  0
   18.7550   64.4400   -2.8210 C   0  0  0  0  0  2  0  0  0  0  0  0
   19.1620   65.7940   -3.4490 C   0  0  2  0  0  3  0  0  0  0  0  0
   20.5750   66.0830   -3.1930 N   0  0  0  0  0  1  0  0  0  0  0  0
   18.3190   66.9220   -2.9230 C   0  0  0  0  0  0  0  0  0  0  0  0
   18.8090   67.7710   -2.1320 O   0  0  0  0  0  1  0  0  0  0  0  0
   16.9860   67.0260   -3.3000 O   0  0  0  0  0  0  0  0  0  0  0  0
  1 17  1  6  0  0  0
  1  2  1  0  0  0  0
  1  6  1  0  0  0  0
  2  3  1  0  0  0  0
  3  4  1  0  0  0  0
  3 18  1  6  0  0  0
  4  5  1  1  0  0  0
  6  7  1  1  0  0  0
  6  4  1  0  0  0  0
  8  9  1  0  0  0  0
  9 14  1  0  0  0  0
 10  9  2  0  0  0  0
 10 11  1  0  0  0  0
 11 12  2  0  0  0  0
 12 13  1  0  0  0  0
 13 17  1  0  0  0  0
 14 15  1  0  0  0  0
 14 13  2  0  0  0  0
 15 16  2  0  0  0  0
 16 17  1  0  0  0  0
 18 19  1  0  0  0  0
 19 20  1  0  0  0  0
 20 21  1  0  0  0  0
 22 23  1  1  0  0  0
 22 24  1  0  0  0  0
 22 21  1  0  0  0  0
 24 25  1  0  0  0  0
 26 24  2  0  0  0  0
M  END
>  <MODEL>
2

>  <REMARK>
 VINA RESULT:      -8.1      1.378      2.026
  Name = ./data/cofactor_redock/pdb/l1c0.pdb
  7 active torsions:
  status: ('A' for Active; 'I' for Inactive)
    1  A    between atoms: N5_10  and  C6_11
    2  A    between atoms: C7_13  and  C8_14
    3  A    between atoms: C8_14  and  S1_15
    4  A    between atoms: S1_15  and  C9_16
    5  A    between atoms: C9_16  and  C10_17
    6  A    between atoms: C10_17  and  C11_18
    7  A    between atoms: C11_18  and  C12_20
                            x       y       z     vdW  Elec       q    Type
                         _______ _______ _______ _____ _____    ______ ____

>  <TORSDO>
F 7

$$$$
./data/cofactor_redock/pdb/l1c0.pdb
 OpenBabel11272014163D

 26 28  0  0  1  0  0  0  0  0999 V2000
   18.9880   57.8490   -6.0110 C   0  0  2  0  0  3  0  0  0  0  0  0
   20.1310   57.2320   -6.5720 O   0  0  0  0  0  0  0  0  0  0  0  0
   19.9010   57.0540   -7.9530 C   0  0  1  0  0  3  0  0  0  0  0  0
   18.7690   57.9850   -8.3770 C   0  0  1  0  0  3  0  0  0  0  0  0
   18.0320   57.4410   -9.4400 O   0  0  0  0  0  1  0  0  0  0  0  0
   17.9530   58.1010   -7.1120 C   0  0  1  0  0  3  0  0  0  0  0  0
   16.9080   57.1550   -7.0610 O   0  0  0  0  0  1  0  0  0  0  0  0
   20.6330   62.4530   -2.3820 N   0  0  0  0  0  1  0  0  0  0  0  0
   20.5070   61.0640   -2.6850 C   0  0  0  0  0  0  0  0  0  0  0  0
   20.8740   60.1170   -1.7710 N   0  0  0  0  0  0  0  0  0  0  0  0
   20.7490   58.7780   -2.0390 C   0  0  0  0  0  3  0  0  0  0  0  0
   20.2500   58.3560   -3.2400 N   0  0  0  0  0  0  0  0  0  0  0  0
   19.8970   59.2970   -4.1510 C   0  0  0  0  0  0  0  0  0  0  0  0
   20.0040   60.6230   -3.9040 C   0  0  0  0  0  0  0  0  0  0  0  0
   19.5400   61.3380   -4.9450 N   0  0  0  0  0  0  0  0  0  0  0  0
   19.1530   60.3750   -5.8240 C   0  0  0  0  0  3  0  0  0  0  0  0
   19.3720   59.1110   -5.3720 N   0  0  0  0  0  0  0  0  0  0  0  0
   21.2010   57.3120   -8.7240 C   0  0  0  0  0  2  0  0  0  0  0  0
   21.1280   56.5770  -10.4030 S   0  0  0  0  0  0  0  0  0  0  0  0
   21.5610   58.0880  -11.3430 C   0  0  0  0  0  2  0  0  0  0  0  0
   22.1110   59.1970  -10.4300 C   0  0  0  0  0  2  0  0  0  0  0  0
   21.2850   60.5040  -10.4850 C   0  0  2  0  0  3  0  0  0  0  0  0
   19.8510   60.2110  -10.5430 N   0  0  0  0  0  1  0  0  0  0  0  0
   21.6700   61.3510  -11.6650 C   0  0  0  0  0  0  0  0  0  0  0  0
   22.4810   62.3060  -11.5290 O   0  0  0  0  0  1  0  0  0  0  0  0
   21.1220   61.0910  -12.9150 O   0  0  0  0  0  0  0  0  0  0  0  0
  1 17  1  6  0  0  0
  2  1  1  0  0  0  0
  3 18  1  6  0  0  0
  3  2  1  0  0  0  0
  4  5  1  6  0  0  0
  4  3  1  0  0  0  0
  4  6  1  0  0  0  0
  6  7  1  6  0  0  0
  6  1  1  0  0  0  0
  9  8  1  0  0  0  0
  9 10  1  0  0  0  0
 11 10  2  0  0  0  0
 12 11  1  0  0  0  0
 13 14  1  0  0  0  0
 13 12  2  0  0  0  0
 14  9  2  0  0  0  0
 15 14  1  0  0  0  0
 16 17  1  0  0  0  0
 16 15  2  0  0  0  0
 17 13  1  0  0  0  0
 19 18  1  0  0  0  0
 20 21  1  0  0  0  0
 20 19  1  0  0  0  0
 22 23  1  6  0  0  0
 22 21  1  0  0  0  0
 24 25  1  0  0  0  0
 24 22  1  0  0  0  0
 26 24  2  0  0  0  0
M  END
>  <MODEL>
3

>  <REMARK>
 VINA RESULT:      -7.6      4.351      7.681
  Name = ./data/cofactor_redock/pdb/l1c0.pdb
  7 active torsions:
  status: ('A' for Active; 'I' for Inactive)
    1  A    between atoms: N5_10  and  C6_11
    2  A    between atoms: C7_13  and  C8_14
    3  A    between atoms: C8_14  and  S1_15
    4  A    between atoms: S1_15  and  C9_16
    5  A    between atoms: C9_16  and  C10_17
    6  A    between atoms: C10_17  and  C11_18
    7  A    between atoms: C11_18  and  C12_20
                            x       y       z     vdW  Elec       q    Type
                         _______ _______ _______ _____ _____    ______ ____

>  <TORSDO>
F 7

$$$$
./data/cofactor_redock/pdb/l1c0.pdb
 OpenBabel11272014163D

 26 28  0  0  1  0  0  0  0  0999 V2000
   19.0730   57.8520   -5.1050 C   0  0  2  0  0  3  0  0  0  0  0  0
   19.1150   59.2560   -4.9430 O   0  0  0  0  0  0  0  0  0  0  0  0
   19.6530   59.5370   -3.6690 C   0  0  1  0  0  3  0  0  0  0  0  0
   20.3940   58.2980   -3.1760 C   0  0  1  0  0  3  0  0  0  0  0  0
   20.3530   58.2030   -1.7760 O   0  0  0  0  0  1  0  0  0  0  0  0
   19.6390   57.1780   -3.8510 C   0  0  1  0  0  3  0  0  0  0  0  0
   18.6100   56.6610   -3.0370 O   0  0  0  0  0  1  0  0  0  0  0  0
   21.7660   57.1530  -10.5210 N   0  0  0  0  0  1  0  0  0  0  0  0
   21.0470   57.9200   -9.5550 C   0  0  0  0  0  0  0  0  0  0  0  0
   20.6300   59.1890   -9.8450 N   0  0  0  0  0  0  0  0  0  0  0  0
   19.9280   59.9360   -8.9350 C   0  0  0  0  0  3  0  0  0  0  0  0
   19.6260   59.4230   -7.7030 N   0  0  0  0  0  0  0  0  0  0  0  0
   20.0500   58.1680   -7.4130 C   0  0  0  0  0  0  0  0  0  0  0  0
   20.7370   57.4110   -8.2990 C   0  0  0  0  0  0  0  0  0  0  0  0
   20.9920   56.1930   -7.7860 N   0  0  0  0  0  0  0  0  0  0  0  0
   20.4260   56.2630   -6.5500 C   0  0  0  0  0  3  0  0  0  0  0  0
   19.8510   57.4670   -6.2860 N   0  0  0  0  0  0  0  0  0  0  0  0
   20.5580   60.7720   -3.7580 C   0  0  0  0  0  2  0  0  0  0  0  0
   19.8460   62.0300   -4.8870 S   0  0  0  0  0  0  0  0  0  0  0  0
   20.3360   63.5130   -3.9310 C   0  0  0  0  0  2  0  0  0  0  0  0
   19.1190   64.3500   -3.5030 C   0  0  0  0  0  2  0  0  0  0  0  0
   19.3430   65.8740   -3.6420 C   0  0  2  0  0  3  0  0  0  0  0  0
   20.6630   66.2560   -3.1350 N   0  0  0  0  0  1  0  0  0  0  0  0
   18.2840   66.6560   -2.9170 C   0  0  0  0  0  0  0  0  0  0  0  0
   17.0710   66.3280   -3.0100 O   0  0  0  0  0  0  0  0  0  0  0  0
   18.6390   67.7560   -2.1460 O   0  0  0  0  0  1  0  0  0  0  0  0
  1 17  1  6  0  0  0
  1  2  1  0  0  0  0
  1  6  1  0  0  0  0
  2  3  1  0  0  0  0
  3 18  1  6  0  0  0
  3  4  1  0  0  0  0
  4  5  1  1  0  0  0
  6  4  1  0  0  0  0
  6  7  1  1  0  0  0
  8  9  1  0  0  0  0
  9 14  1  0  0  0  0
 10  9  2  0  0  0  0
 10 11  1  0  0  0  0
 11 12  2  0  0  0  0
 12 13  1  0  0  0  0
 13 17  1  0  0  0  0
 14 15  1  0  0  0  0
 14 13  2  0  0  0  0
 15 16  2  0  0  0  0
 16 17  1  0  0  0  0
 19 20  1  0  0  0  0
 19 18  1  0  0  0  0
 20 21  1  0  0  0  0
 22 21  1  0  0  0  0
 22 23  1  1  0  0  0
 22 24  1  0  0  0  0
 24 26  1  0  0  0  0
 25 24  2  0  0  0  0
M  END
>  <MODEL>
4

>  <REMARK>
 VINA RESULT:      -7.5      1.609      2.400
  Name = ./data/cofactor_redock/pdb/l1c0.pdb
  7 active torsions:
  status: ('A' for Active; 'I' for Inactive)
    1  A    between atoms: N5_10  and  C6_11
    2  A    between atoms: C7_13  and  C8_14
    3  A    between atoms: C8_14  and  S1_15
    4  A    between atoms: S1_15  and  C9_16
    5  A    between atoms: C9_16  and  C10_17
    6  A    between atoms: C10_17  and  C11_18
    7  A    between atoms: C11_18  and  C12_20
                            x       y       z     vdW  Elec       q    Type
                         _______ _______ _______ _____ _____    ______ ____

>  <TORSDO>
F 7

$$$$
./data/cofactor_redock/pdb/l1c0.pdb
 OpenBabel11272014163D

 26 28  0  0  1  0  0  0  0  0999 V2000
   19.1320   59.1240   -4.9810 C   0  0  2  0  0  3  0  0  0  0  0  0
   19.1170   60.5180   -4.7420 O   0  0  0  0  0  0  0  0  0  0  0  0
   19.8820   60.7750   -3.5850 C   0  0  1  0  0  3  0  0  0  0  0  0
   20.7850   59.5720   -3.3280 C   0  0  1  0  0  3  0  0  0  0  0  0
   21.0330   59.4040   -1.9570 O   0  0  0  0  0  1  0  0  0  0  0  0
   19.9820   58.4330   -3.9100 C   0  0  1  0  0  3  0  0  0  0  0  0
   19.1740   57.8000   -2.9430 O   0  0  0  0  0  1  0  0  0  0  0  0
   21.6890   56.9780  -10.0730 N   0  0  0  0  0  1  0  0  0  0  0  0
   21.1010   56.8070   -8.7840 C   0  0  0  0  0  0  0  0  0  0  0  0
   21.0120   55.5660   -8.2190 N   0  0  0  0  0  0  0  0  0  0  0  0
   20.4620   55.3840   -6.9770 C   0  0  0  0  0  3  0  0  0  0  0  0
   19.9840   56.4510   -6.2670 N   0  0  0  0  0  0  0  0  0  0  0  0
   20.0620   57.6810   -6.8340 C   0  0  0  0  0  0  0  0  0  0  0  0
   20.6090   57.8840   -8.0550 C   0  0  0  0  0  0  0  0  0  0  0  0
   20.6120   59.1940   -8.3620 N   0  0  0  0  0  0  0  0  0  0  0  0
   20.0390   59.7610   -7.2650 C   0  0  0  0  0  3  0  0  0  0  0  0
   19.6780   58.8580   -6.3150 N   0  0  0  0  0  0  0  0  0  0  0  0
   20.6700   62.0770   -3.7730 C   0  0  0  0  0  2  0  0  0  0  0  0
   21.2280   62.7470   -2.1590 S   0  0  0  0  0  0  0  0  0  0  0  0
   20.9150   64.5160   -2.5150 C   0  0  0  0  0  2  0  0  0  0  0  0
   19.4740   64.7610   -2.9920 C   0  0  0  0  0  2  0  0  0  0  0  0
   19.2690   66.1520   -3.6380 C   0  0  2  0  0  3  0  0  0  0  0  0
   20.5340   66.8880   -3.7020 N   0  0  0  0  0  1  0  0  0  0  0  0
   18.2550   66.9660   -2.8860 C   0  0  0  0  0  0  0  0  0  0  0  0
   18.6210   67.7810   -1.9980 O   0  0  0  0  0  1  0  0  0  0  0  0
   16.9010   66.8140   -3.1600 O   0  0  0  0  0  0  0  0  0  0  0  0
  1 17  1  6  0  0  0
  1  2  1  0  0  0  0
  1  6  1  0  0  0  0
  2  3  1  0  0  0  0
  3 18  1  6  0  0  0
  3  4  1  0  0  0  0
  4  5  1  1  0  0  0
  6  4  1  0  0  0  0
  6  7  1  1  0  0  0
  8  9  1  0  0  0  0
  9 10  2  0  0  0  0
  9 14  1  0  0  0  0
 10 11  1  0  0  0  0
 11 12  2  0  0  0  0
 13 17  1  0  0  0  0
 13 12  1  0  0  0  0
 14 13  2  0  0  0  0
 15 14  1  0  0  0  0
 15 16  2  0  0  0  0
 16 17  1  0  0  0  0
 18 19  1  0  0  0  0
 20 19  1  0  0  0  0
 21 20  1  0  0  0  0
 22 23  1  1  0  0  0
 22 21  1  0  0  0  0
 22 24  1  0  0  0  0
 24 25  1  0  0  0  0
 26 24  2  0  0  0  0
M  END
>  <MODEL>
5

>  <REMARK>
 VINA RESULT:      -7.3      2.068      3.132
  Name = ./data/cofactor_redock/pdb/l1c0.pdb
  7 active torsions:
  status: ('A' for Active; 'I' for Inactive)
    1  A    between atoms: N5_10  and  C6_11
    2  A    between atoms: C7_13  and  C8_14
    3  A    between atoms: C8_14  and  S1_15
    4  A    between atoms: S1_15  and  C9_16
    5  A    between atoms: C9_16  and  C10_17
    6  A    between atoms: C10_17  and  C11_18
    7  A    between atoms: C11_18  and  C12_20
                            x       y       z     vdW  Elec       q    Type
                         _______ _______ _______ _____ _____    ______ ____

>  <TORSDO>
F 7

$$$$
./data/cofactor_redock/pdb/l1c0.pdb
 OpenBabel11272014163D

 26 28  0  0  1  0  0  0  0  0999 V2000
   19.5470   59.6650   -5.1980 C   0  0  2  0  0  3  0  0  0  0  0  0
   18.3540   60.4150   -5.0710 O   0  0  0  0  0  0  0  0  0  0  0  0
   18.5940   61.4740   -4.1690 C   0  0  1  0  0  3  0  0  0  0  0  0
   20.1010   61.6800   -4.0590 C   0  0  1  0  0  3  0  0  0  0  0  0
   20.4600   62.1540   -2.7870 O   0  0  0  0  0  1  0  0  0  0  0  0
   20.6400   60.2950   -4.3280 C   0  0  1  0  0  3  0  0  0  0  0  0
   20.8390   59.5590   -3.1410 O   0  0  0  0  0  1  0  0  0  0  0  0
   21.5410   58.4310  -10.8170 N   0  0  0  0  0  1  0  0  0  0  0  0
   21.0460   58.0410   -9.5360 C   0  0  0  0  0  0  0  0  0  0  0  0
   20.9180   56.7190   -9.2130 N   0  0  0  0  0  0  0  0  0  0  0  0
   20.4560   56.3250   -7.9830 C   0  0  0  0  0  3  0  0  0  0  0  0
   20.1100   57.2560   -7.0430 N   0  0  0  0  0  0  0  0  0  0  0  0
   20.2270   58.5670   -7.3690 C   0  0  0  0  0  0  0  0  0  0  0  0
   20.6880   58.9780   -8.5730 C   0  0  0  0  0  0  0  0  0  0  0  0
   20.7560   60.3200   -8.6230 N   0  0  0  0  0  0  0  0  0  0  0  0
   20.3110   60.6900   -7.3900 C   0  0  0  0  0  3  0  0  0  0  0  0
   19.9660   59.6370   -6.6020 N   0  0  0  0  0  0  0  0  0  0  0  0
   17.8580   62.7300   -4.6500 C   0  0  0  0  0  2  0  0  0  0  0  0
   16.4890   63.1680   -3.5120 S   0  0  0  0  0  0  0  0  0  0  0  0
   17.2660   64.6470   -2.7630 C   0  0  0  0  0  2  0  0  0  0  0  0
   18.5070   65.1050   -3.5460 C   0  0  0  0  0  2  0  0  0  0  0  0
   19.3860   66.1140   -2.7700 C   0  0  2  0  0  3  0  0  0  0  0  0
   18.6030   67.2840   -2.3660 N   0  0  0  0  0  1  0  0  0  0  0  0
   20.5670   66.5600   -3.5870 C   0  0  0  0  0  0  0  0  0  0  0  0
   21.6460   65.9110   -3.5570 O   0  0  0  0  0  1  0  0  0  0  0  0
   20.4750   67.7020   -4.3730 O   0  0  0  0  0  0  0  0  0  0  0  0
  1 17  1  6  0  0  0
  1  2  1  0  0  0  0
  1  6  1  0  0  0  0
  2  3  1  0  0  0  0
  3 18  1  6  0  0  0
  3  4  1  0  0  0  0
  4  5  1  1  0  0  0
  6  4  1  0  0  0  0
  6  7  1  1  0  0  0
  8  9  1  0  0  0  0
  9 10  2  0  0  0  0
  9 14  1  0  0  0  0
 10 11  1  0  0  0  0
 11 12  2  0  0  0  0
 13 12  1  0  0  0  0
 13 17  1  0  0  0  0
 14 13  2  0  0  0  0
 15 14  1  0  0  0  0
 15 16  2  0  0  0  0
 16 17  1  0  0  0  0
 18 19  1  0  0  0  0
 19 20  1  0  0  0  0
 21 22  1  0  0  0  0
 21 20  1  0  0  0  0
 22 23  1  6  0  0  0
 24 25  1  0  0  0  0
 24 22  1  0  0  0  0
 26 24  2  0  0  0  0
M  END
>  <MODEL>
6

>  <REMARK>
 VINA RESULT:      -6.8      2.119      3.297
  Name = ./data/cofactor_redock/pdb/l1c0.pdb
  7 active torsions:
  status: ('A' for Active; 'I' for Inactive)
    1  A    between atoms: N5_10  and  C6_11
    2  A    between atoms: C7_13  and  C8_14
    3  A    between atoms: C8_14  and  S1_15
    4  A    between atoms: S1_15  and  C9_16
    5  A    between atoms: C9_16  and  C10_17
    6  A    between atoms: C10_17  and  C11_18
    7  A    between atoms: C11_18  and  C12_20
                            x       y       z     vdW  Elec       q    Type
                         _______ _______ _______ _____ _____    ______ ____

>  <TORSDO>
F 7

$$$$
./data/cofactor_redock/pdb/l1c0.pdb
 OpenBabel11272014163D

 26 28  0  0  1  0  0  0  0  0999 V2000
   18.8890   58.5340   -7.8530 C   0  0  2  0  0  3  0  0  0  0  0  0
   19.2390   59.6100   -7.0050 O   0  0  0  0  0  0  0  0  0  0  0  0
   19.1740   59.1580   -5.6700 C   0  0  1  0  0  3  0  0  0  0  0  0
   19.2220   57.6330   -5.6760 C   0  0  1  0  0  3  0  0  0  0  0  0
   18.5080   57.0950   -4.5940 O   0  0  0  0  0  1  0  0  0  0  0  0
   18.5930   57.2920   -7.0050 C   0  0  1  0  0  3  0  0  0  0  0  0
   17.2060   57.0640   -6.8970 O   0  0  0  0  0  1  0  0  0  0  0  0
   23.0850   58.3840  -12.2630 N   0  0  0  0  0  1  0  0  0  0  0  0
   22.1070   59.0560  -11.4700 C   0  0  0  0  0  0  0  0  0  0  0  0
   21.7910   60.3630  -11.7150 N   0  0  0  0  0  0  0  0  0  0  0  0
   20.8460   61.0210  -10.9720 C   0  0  0  0  0  3  0  0  0  0  0  0
   20.1900   60.3790   -9.9580 N   0  0  0  0  0  0  0  0  0  0  0  0
   20.5130   59.0840   -9.7090 C   0  0  0  0  0  0  0  0  0  0  0  0
   21.4370   58.4140  -10.4350 C   0  0  0  0  0  0  0  0  0  0  0  0
   21.5300   57.1370  -10.0200 N   0  0  0  0  0  0  0  0  0  0  0  0
   20.6190   57.0810   -9.0110 C   0  0  0  0  0  3  0  0  0  0  0  0
   19.9870   58.2640   -8.7860 N   0  0  0  0  0  0  0  0  0  0  0  0
   20.3170   59.7840   -4.8620 C   0  0  0  0  0  2  0  0  0  0  0  0
   20.4490   59.0150   -3.2030 S   0  0  0  0  0  0  0  0  0  0  0  0
   20.4730   60.5630   -2.2240 C   0  0  0  0  0  2  0  0  0  0  0  0
   21.5640   61.5320   -2.7080 C   0  0  0  0  0  2  0  0  0  0  0  0
   22.5010   62.0160   -1.5750 C   0  0  2  0  0  3  0  0  0  0  0  0
   22.3980   61.1410   -0.4050 N   0  0  0  0  0  1  0  0  0  0  0  0
   22.1940   63.4300   -1.1710 C   0  0  0  0  0  0  0  0  0  0  0  0
   22.3200   63.7930    0.0290 O   0  0  0  0  0  1  0  0  0  0  0  0
   21.7570   64.3450   -2.1210 O   0  0  0  0  0  0  0  0  0  0  0  0
  1 17  1  6  0  0  0
  1  6  1  0  0  0  0
  1  2  1  0  0  0  0
  2  3  1  0  0  0  0
  3 18  1  1  0  0  0
  4  3  1  0  0  0  0
  4  5  1  1  0  0  0
  6  7  1  1  0  0  0
  6  4  1  0  0  0  0
  8  9  1  0  0  0  0
  9 14  1  0  0  0  0
 10  9  2  0  0  0  0
 10 11  1  0  0  0  0
 11 12  2  0  0  0  0
 12 13  1  0  0  0  0
 13 17  1  0  0  0  0
 14 15  1  0  0  0  0
 14 13  2  0  0  0  0
 15 16  2  0  0  0  0
 16 17  1  0  0  0  0
 18 19  1  0  0  0  0
 19 20  1  0  0  0  0
 21 20  1  0  0  0  0
 21 22  1  0  0  0  0
 22 24  1  0  0  0  0
 22 23  1  1  0  0  0
 24 25  1  0  0  0  0
 26 24  2  0  0  0  0
M  END
>  <MODEL>
7

>  <REMARK>
 VINA RESULT:      -6.6      2.671      2.857
  Name = ./data/cofactor_redock/pdb/l1c0.pdb
  7 active torsions:
  status: ('A' for Active; 'I' for Inactive)
    1  A    between atoms: N5_10  and  C6_11
    2  A    between atoms: C7_13  and  C8_14
    3  A    between atoms: C8_14  and  S1_15
    4  A    between atoms: S1_15  and  C9_16
    5  A    between atoms: C9_16  and  C10_17
    6  A    between atoms: C10_17  and  C11_18
    7  A    between atoms: C11_18  and  C12_20
                            x       y       z     vdW  Elec       q    Type
                         _______ _______ _______ _____ _____    ______ ____

>  <TORSDO>
F 7

$$$$
./data/cofactor_redock/pdb/l1c0.pdb
 OpenBabel11272014163D

 26 28  0  0  1  0  0  0  0  0999 V2000
   20.6670   58.5920   -7.8270 C   0  0  2  0  0  3  0  0  0  0  0  0
   20.7490   58.0140   -6.5380 O   0  0  0  0  0  0  0  0  0  0  0  0
   19.7040   58.5420   -5.7510 C   0  0  1  0  0  3  0  0  0  0  0  0
   18.6500   59.1310   -6.6840 C   0  0  1  0  0  3  0  0  0  0  0  0
   17.9890   60.2150   -6.0860 O   0  0  0  0  0  1  0  0  0  0  0  0
   19.4720   59.5490   -7.8800 C   0  0  1  0  0  3  0  0  0  0  0  0
   19.8880   60.8940   -7.7990 O   0  0  0  0  0  1  0  0  0  0  0  0
   20.6460   54.9400  -12.6990 N   0  0  0  0  0  1  0  0  0  0  0  0
   21.1520   56.0420  -11.9460 C   0  0  0  0  0  0  0  0  0  0  0  0
   22.1440   56.8340  -12.4540 N   0  0  0  0  0  0  0  0  0  0  0  0
   22.6340   57.9040  -11.7510 C   0  0  0  0  0  3  0  0  0  0  0  0
   22.1370   58.2080  -10.5130 N   0  0  0  0  0  0  0  0  0  0  0  0
   21.1600   57.4140  -10.0060 C   0  0  0  0  0  0  0  0  0  0  0  0
   20.6560   56.3580  -10.6860 C   0  0  0  0  0  0  0  0  0  0  0  0
   19.6670   55.7720   -9.9880 N   0  0  0  0  0  0  0  0  0  0  0  0
   19.6070   56.5290   -8.8580 C   0  0  0  0  0  3  0  0  0  0  0  0
   20.5200   57.5360   -8.8330 N   0  0  0  0  0  0  0  0  0  0  0  0
   19.1420   57.4400   -4.8440 C   0  0  0  0  0  2  0  0  0  0  0  0
   19.8910   57.5180   -3.1720 S   0  0  0  0  0  0  0  0  0  0  0  0
   20.4680   59.2550   -3.2520 C   0  0  0  0  0  2  0  0  0  0  0  0
   20.7680   59.8260   -1.8570 C   0  0  0  0  0  2  0  0  0  0  0  0
   20.8670   61.3700   -1.8340 C   0  0  2  0  0  3  0  0  0  0  0  0
   20.6680   61.9250   -3.1750 N   0  0  0  0  0  1  0  0  0  0  0  0
   22.1920   61.8310   -1.2940 C   0  0  0  0  0  0  0  0  0  0  0  0
   22.5240   63.0440   -1.3650 O   0  0  0  0  0  0  0  0  0  0  0  0
   23.0650   60.9140   -0.7220 O   0  0  0  0  0  1  0  0  0  0  0  0
  1 17  1  6  0  0  0
  1  2  1  0  0  0  0
  2  3  1  0  0  0  0
  3 18  1  6  0  0  0
  4  5  1  1  0  0  0
  4  3  1  0  0  0  0
  6  1  1  0  0  0  0
  6  7  1  1  0  0  0
  6  4  1  0  0  0  0
  8  9  1  0  0  0  0
  9 14  1  0  0  0  0
 10  9  2  0  0  0  0
 10 11  1  0  0  0  0
 11 12  2  0  0  0  0
 12 13  1  0  0  0  0
 13 17  1  0  0  0  0
 14 13  2  0  0  0  0
 14 15  1  0  0  0  0
 15 16  2  0  0  0  0
 16 17  1  0  0  0  0
 18 19  1  0  0  0  0
 20 19  1  0  0  0  0
 20 21  1  0  0  0  0
 21 22  1  0  0  0  0
 22 23  1  6  0  0  0
 22 24  1  0  0  0  0
 24 26  1  0  0  0  0
 25 24  2  0  0  0  0
M  END
>  <MODEL>
8

>  <REMARK>
 VINA RESULT:      -6.4      3.270      3.947
  Name = ./data/cofactor_redock/pdb/l1c0.pdb
  7 active torsions:
  status: ('A' for Active; 'I' for Inactive)
    1  A    between atoms: N5_10  and  C6_11
    2  A    between atoms: C7_13  and  C8_14
    3  A    between atoms: C8_14  and  S1_15
    4  A    between atoms: S1_15  and  C9_16
    5  A    between atoms: C9_16  and  C10_17
    6  A    between atoms: C10_17  and  C11_18
    7  A    between atoms: C11_18  and  C12_20
                            x       y       z     vdW  Elec       q    Type
                         _______ _______ _______ _____ _____    ______ ____

>  <TORSDO>
F 7

$$$$
./data/cofactor_redock/pdb/l1c0.pdb
 OpenBabel11272014163D

 26 28  0  0  1  0  0  0  0  0999 V2000
   19.3220   60.0550   -6.6420 C   0  0  2  0  0  3  0  0  0  0  0  0
   18.4870   58.9410   -6.8910 O   0  0  0  0  0  0  0  0  0  0  0  0
   19.0970   58.1450   -7.8830 C   0  0  1  0  0  3  0  0  0  0  0  0
   20.5760   58.5140   -7.9530 C   0  0  1  0  0  3  0  0  0  0  0  0
   21.0840   58.3420   -9.2500 O   0  0  0  0  0  1  0  0  0  0  0  0
   20.5710   59.9620   -7.5250 C   0  0  1  0  0  3  0  0  0  0  0  0
   20.4890   60.8430   -8.6240 O   0  0  0  0  0  1  0  0  0  0  0  0
   21.2250   61.2630   -0.9860 N   0  0  0  0  0  1  0  0  0  0  0  0
   20.7940   61.6600   -2.2870 C   0  0  0  0  0  0  0  0  0  0  0  0
   20.7590   62.9810   -2.6350 N   0  0  0  0  0  0  0  0  0  0  0  0
   20.3600   63.3810   -3.8850 C   0  0  0  0  0  3  0  0  0  0  0  0
   19.9830   62.4570   -4.8200 N   0  0  0  0  0  0  0  0  0  0  0  0
   20.0070   61.1470   -4.4690 C   0  0  0  0  0  0  0  0  0  0  0  0
   20.4060   60.7300   -3.2450 C   0  0  0  0  0  0  0  0  0  0  0  0
   20.3870   59.3870   -3.1720 N   0  0  0  0  0  0  0  0  0  0  0  0
   19.9560   59.0240   -4.4110 C   0  0  0  0  0  3  0  0  0  0  0  0
   19.7010   60.0810   -5.2260 N   0  0  0  0  0  0  0  0  0  0  0  0
   18.8710   56.6630   -7.5590 C   0  0  0  0  0  2  0  0  0  0  0  0
   17.0890   56.2380   -7.6350 S   0  0  0  0  0  0  0  0  0  0  0  0
   17.2200   54.5420   -6.9570 C   0  0  0  0  0  2  0  0  0  0  0  0
   18.5150   54.3420   -6.1540 C   0  0  0  0  0  2  0  0  0  0  0  0
   18.2860   54.2740   -4.6250 C   0  0  2  0  0  3  0  0  0  0  0  0
   16.8580   54.3470   -4.3090 N   0  0  0  0  0  1  0  0  0  0  0  0
   19.0140   55.3760   -3.9080 C   0  0  0  0  0  0  0  0  0  0  0  0
   20.2440   55.5640   -4.1060 O   0  0  0  0  0  0  0  0  0  0  0  0
   18.3330   56.1890   -3.0110 O   0  0  0  0  0  1  0  0  0  0  0  0
  1 17  1  1  0  0  0
  2  1  1  0  0  0  0
  3 18  1  1  0  0  0
  3  2  1  0  0  0  0
  4  5  1  6  0  0  0
  4  3  1  0  0  0  0
  4  6  1  0  0  0  0
  6  7  1  6  0  0  0
  6  1  1  0  0  0  0
  9  8  1  0  0  0  0
 10  9  1  0  0  0  0
 11 10  2  0  0  0  0
 12 13  2  0  0  0  0
 12 11  1  0  0  0  0
 13 14  1  0  0  0  0
 14 15  1  0  0  0  0
 14  9  2  0  0  0  0
 16 15  2  0  0  0  0
 17 13  1  0  0  0  0
 17 16  1  0  0  0  0
 19 18  1  0  0  0  0
 19 20  1  0  0  0  0
 20 21  1  0  0  0  0
 21 22  1  0  0  0  0
 22 23  1  6  0  0  0
 22 24  1  0  0  0  0
 24 26  1  0  0  0  0
 25 24  2  0  0  0  0
M  END
>  <MODEL>
9

>  <REMARK>
 VINA RESULT:      -6.4      4.481      7.989
  Name = ./data/cofactor_redock/pdb/l1c0.pdb
  7 active torsions:
  status: ('A' for Active; 'I' for Inactive)
    1  A    between atoms: N5_10  and  C6_11
    2  A    between atoms: C7_13  and  C8_14
    3  A    between atoms: C8_14  and  S1_15
    4  A    between atoms: S1_15  and  C9_16
    5  A    between atoms: C9_16  and  C10_17
    6  A    between atoms: C10_17  and  C11_18
    7  A    between atoms: C11_18  and  C12_20
                            x       y       z     vdW  Elec       q    Type
                         _______ _______ _______ _____ _____    ______ ____

>  <TORSDO>
F 7

$$$$
