./data/cofactor_redock/pdb/l0c0.pdb
 OpenBabel11272014373D

 29 31  0  0  1  0  0  0  0  0999 V2000
   19.3040   59.6740   -5.8960 C   0  0  1  0  0  3  0  0  0  0  0  0
   19.2490   59.8600   -7.2960 O   0  0  0  0  0  0  0  0  0  0  0  0
   18.9910   58.6110   -7.9010 C   0  0  2  0  0  3  0  0  0  0  0  0
   18.8440   57.5370   -6.8180 C   0  0  2  0  0  3  0  0  0  0  0  0
   17.4890   57.2070   -6.6040 O   0  0  0  0  0  1  0  0  0  0  0  0
   19.4730   58.1840   -5.6070 C   0  0  2  0  0  3  0  0  0  0  0  0
   18.8230   57.8090   -4.4180 O   0  0  0  0  0  1  0  0  0  0  0  0
   20.0850   58.2760   -8.8180 N   0  0  0  0  0  0  0  0  0  0  0  0
   20.7660   57.1050   -8.9230 C   0  0  0  0  0  3  0  0  0  0  0  0
   21.6740   57.0970   -9.9380 N   0  0  0  0  0  0  0  0  0  0  0  0
   21.5260   58.3230  -10.4770 C   0  0  0  0  0  0  0  0  0  0  0  0
   22.1720   58.8890  -11.5700 C   0  0  0  0  0  0  0  0  0  0  0  0
   23.1780   58.1770  -12.2950 N   0  0  0  0  0  1  0  0  0  0  0  0
   21.8070   60.1580  -11.9360 N   0  0  0  0  0  0  0  0  0  0  0  0
   20.8360   60.8450  -11.2480 C   0  0  0  0  0  3  0  0  0  0  0  0
   20.2060   60.2750  -10.1760 N   0  3  0  0  0  0  0  0  0  0  0  0
   20.5760   59.0210   -9.8170 C   0  0  0  0  0  0  0  0  0  0  0  0
   20.4540   60.4940   -5.3010 C   0  0  0  0  0  2  0  0  0  0  0  0
   21.1050   61.6140   -2.6780 C   0  0  0  0  0  1  0  0  0  0  0  0
   19.8690   61.5090   -3.9520 S   0  0  1  0  0  3  0  0  0  0  0  0
   19.4050   63.1480   -4.4990 C   0  0  0  0  0  2  0  0  0  0  0  0
   18.8980   64.0390   -3.3510 C   0  0  0  0  0  2  0  0  0  0  0  0
   19.3850   65.5050   -3.4140 C   0  0  2  0  0  3  0  0  0  0  0  0
   20.6290   65.6420   -2.6540 N   0  3  0  0  0  2  0  0  0  0  0  0
   18.3460   66.4690   -2.9010 C   0  0  0  0  0  0  0  0  0  0  0  0
   17.1170   66.2350   -3.0610 O   0  0  0  0  0  0  0  0  0  0  0  0
   18.7430   67.6140   -2.2210 O   0  5  0  0  0  0  0  0  0  0  0  0
   19.5064   60.7597   -9.6811 H   0  0  0  0  0  0  0  0  0  0  0  0
   21.3208   64.9839   -3.0128 H   0  0  0  0  0  0  0  0  0  0  0  0
  1  6  1  0  0  0  0
  1 18  1  6  0  0  0
  2  1  1  0  0  0  0
  3  8  1  6  0  0  0
  3  2  1  0  0  0  0
  3  4  1  0  0  0  0
  4  5  1  1  0  0  0
  4  6  1  0  0  0  0
  6  7  1  1  0  0  0
  9  8  1  0  0  0  0
 10  9  2  0  0  0  0
 11 10  1  0  0  0  0
 11 17  1  0  0  0  0
 12 11  2  0  0  0  0
 13 12  1  0  0  0  0
 14 12  1  0  0  0  0
 14 15  2  0  0  0  0
 15 16  1  0  0  0  0
 16 17  2  0  0  0  0
 16 28  1  0  0  0  0
 17  8  1  0  0  0  0
 18 20  1  0  0  0  0
 20 19  1  1  0  0  0
 21 20  1  0  0  0  0
 21 22  1  0  0  0  0
 23 22  1  1  0  0  0
 23 25  1  0  0  0  0
 23 24  1  0  0  0  0
 24 29  1  0  0  0  0
 25 27  1  0  0  0  0
 26 25  2  0  0  0  0
M  CHG  3  16   1  24   1  27  -1
M  END
>  <MODEL>
1

>  <REMARK>
VINA RESULT:      -8.6      0.000      0.000
Name = ./data/cofactor_redock/pdb/l0c0.pdb
7 active torsions:
status: ('A' for Active; 'I' for Inactive)
1  A    between atoms: S1_2  and  C2_3
2  A    between atoms: S1_2  and  C6_10
3  A    between atoms: C2_3  and  C3_4
4  A    between atoms: C3_4  and  C4_5
5  A    between atoms: C4_5  and  C5_7
6  A    between atoms: C6_10  and  C7_11
7  A    between atoms: C8_13  and  N2_14
x       y       z     vdW  Elec       q    Type
_______ _______ _______ _____ _____    ______ ____

>  <TORSDO>
F 7

$$$$
./data/cofactor_redock/pdb/l0c0.pdb
 OpenBabel11272014373D

 29 31  0  0  1  0  0  0  0  0999 V2000
   20.3180   60.4660   -5.0960 C   0  0  1  0  0  3  0  0  0  0  0  0
   20.4310   61.8680   -5.2260 O   0  0  0  0  0  0  0  0  0  0  0  0
   20.5610   62.4270   -3.9360 C   0  0  2  0  0  3  0  0  0  0  0  0
   20.5540   61.3070   -2.8900 C   0  0  2  0  0  3  0  0  0  0  0  0
   21.8550   61.0410   -2.4160 O   0  0  0  0  0  1  0  0  0  0  0  0
   19.9720   60.1360   -3.6450 C   0  0  2  0  0  3  0  0  0  0  0  0
   20.5420   58.9170   -3.2400 O   0  0  0  0  0  1  0  0  0  0  0  0
   19.4600   63.3660   -3.6970 N   0  0  0  0  0  0  0  0  0  0  0  0
   18.1590   63.0840   -3.4250 C   0  0  0  0  0  3  0  0  0  0  0  0
   17.4080   64.1930   -3.1740 N   0  0  0  0  0  0  0  0  0  0  0  0
   18.3050   65.1910   -3.2910 C   0  0  0  0  0  0  0  0  0  0  0  0
   18.1290   66.5590   -3.1170 C   0  0  0  0  0  0  0  0  0  0  0  0
   16.8520   67.1130   -2.7910 N   0  0  0  0  0  1  0  0  0  0  0  0
   19.2280   67.3640   -3.2660 N   0  3  0  0  0  0  0  0  0  0  0  0
   20.4590   66.8370   -3.5720 C   0  0  0  0  0  3  0  0  0  0  0  0
   20.6190   65.4890   -3.7370 N   0  0  0  0  0  0  0  0  0  0  0  0
   19.5270   64.6990   -3.5940 C   0  0  0  0  0  0  0  0  0  0  0  0
   19.2540   59.9320   -6.0610 C   0  0  0  0  0  2  0  0  0  0  0  0
   18.7290   58.0940   -8.2760 C   0  0  0  0  0  1  0  0  0  0  0  0
   19.9880   58.8170   -7.2490 S   0  0  1  0  0  3  0  0  0  0  0  0
   21.2180   59.6310   -8.2610 C   0  0  0  0  0  2  0  0  0  0  0  0
   20.5990   60.4860   -9.3820 C   0  0  0  0  0  2  0  0  0  0  0  0
   20.9360   60.0100  -10.8130 C   0  0  2  0  0  3  0  0  0  0  0  0
   22.0310   59.0380  -10.7610 N   0  3  0  0  0  2  0  0  0  0  0  0
   21.2940   61.1580  -11.7220 C   0  0  0  0  0  0  0  0  0  0  0  0
   21.7720   62.2250  -11.2510 O   0  5  0  0  0  0  0  0  0  0  0  0
   21.1210   61.0310  -13.0950 O   0  0  0  0  0  0  0  0  0  0  0  0
   19.1335   68.3373   -3.1517 H   0  0  0  0  0  0  0  0  0  0  0  0
   21.7736   58.2686  -10.1428 H   0  0  0  0  0  0  0  0  0  0  0  0
  1 18  1  6  0  0  0
  1  6  1  0  0  0  0
  2  1  1  0  0  0  0
  2  3  1  0  0  0  0
  3  8  1  1  0  0  0
  3  4  1  0  0  0  0
  4  5  1  6  0  0  0
  6  7  1  1  0  0  0
  6  4  1  0  0  0  0
  8 17  1  0  0  0  0
  8  9  1  0  0  0  0
  9 10  2  0  0  0  0
 11 10  1  0  0  0  0
 11 12  1  0  0  0  0
 12 13  1  0  0  0  0
 14 12  2  0  0  0  0
 14 28  1  0  0  0  0
 15 14  1  0  0  0  0
 16 17  1  0  0  0  0
 16 15  2  0  0  0  0
 17 11  2  0  0  0  0
 20 19  1  6  0  0  0
 20 18  1  0  0  0  0
 21 20  1  0  0  0  0
 22 21  1  0  0  0  0
 23 24  1  0  0  0  0
 23 22  1  1  0  0  0
 24 29  1  0  0  0  0
 25 26  1  0  0  0  0
 25 23  1  0  0  0  0
 27 25  2  0  0  0  0
M  CHG  3  14   1  24   1  26  -1
M  END
>  <MODEL>
2

>  <REMARK>
VINA RESULT:      -8.6      2.646      8.508
Name = ./data/cofactor_redock/pdb/l0c0.pdb
7 active torsions:
status: ('A' for Active; 'I' for Inactive)
1  A    between atoms: S1_2  and  C2_3
2  A    between atoms: S1_2  and  C6_10
3  A    between atoms: C2_3  and  C3_4
4  A    between atoms: C3_4  and  C4_5
5  A    between atoms: C4_5  and  C5_7
6  A    between atoms: C6_10  and  C7_11
7  A    between atoms: C8_13  and  N2_14
x       y       z     vdW  Elec       q    Type
_______ _______ _______ _____ _____    ______ ____

>  <TORSDO>
F 7

$$$$
./data/cofactor_redock/pdb/l0c0.pdb
 OpenBabel11272014373D

 29 31  0  0  1  0  0  0  0  0999 V2000
   19.1170   60.0320   -5.9390 C   0  0  1  0  0  3  0  0  0  0  0  0
   18.8750   59.9990   -7.3310 O   0  0  0  0  0  0  0  0  0  0  0  0
   18.9560   58.6570   -7.7650 C   0  0  2  0  0  3  0  0  0  0  0  0
   19.2480   57.7480   -6.5670 C   0  0  2  0  0  3  0  0  0  0  0  0
   18.0860   57.0690   -6.1440 O   0  0  0  0  0  1  0  0  0  0  0  0
   19.7600   58.7110   -5.5220 C   0  0  2  0  0  3  0  0  0  0  0  0
   19.3720   58.3310   -4.2260 O   0  0  0  0  0  1  0  0  0  0  0  0
   20.0080   58.5340   -8.7780 N   0  0  0  0  0  0  0  0  0  0  0  0
   21.0290   59.3920   -9.0390 C   0  0  0  0  0  3  0  0  0  0  0  0
   21.8840   58.9380   -9.9980 N   0  0  0  0  0  0  0  0  0  0  0  0
   21.3560   57.7420  -10.3240 C   0  0  0  0  0  0  0  0  0  0  0  0
   21.8110   56.7960  -11.2350 C   0  0  0  0  0  0  0  0  0  0  0  0
   22.9860   57.0190  -12.0200 N   0  0  0  0  0  1  0  0  0  0  0  0
   21.0970   55.6330  -11.3530 N   0  0  0  0  0  0  0  0  0  0  0  0
   19.9720   55.4100  -10.5960 C   0  0  0  0  0  3  0  0  0  0  0  0
   19.5360   56.3480   -9.7010 N   0  3  0  0  0  0  0  0  0  0  0  0
   20.2450   57.4980   -9.5930 C   0  0  0  0  0  0  0  0  0  0  0  0
   20.0100   61.2260   -5.5880 C   0  0  0  0  0  2  0  0  0  0  0  0
   20.7230   61.5410   -2.7690 C   0  0  0  0  0  1  0  0  0  0  0  0
   19.5250   61.9350   -4.0220 S   0  0  1  0  0  3  0  0  0  0  0  0
   19.3040   63.7070   -4.1280 C   0  0  0  0  0  2  0  0  0  0  0  0
   18.4570   64.2740   -2.9750 C   0  0  0  0  0  2  0  0  0  0  0  0
   18.7170   65.7660   -2.6620 C   0  0  2  0  0  3  0  0  0  0  0  0
   17.6340   66.5790   -3.2220 N   0  3  0  0  0  2  0  0  0  0  0  0
   20.0510   66.2310   -3.1880 C   0  0  0  0  0  0  0  0  0  0  0  0
   20.1200   67.1820   -4.0140 O   0  0  0  0  0  0  0  0  0  0  0  0
   21.2180   65.6240   -2.7410 O   0  5  0  0  0  0  0  0  0  0  0  0
   18.7330   56.1928   -9.1529 H   0  0  0  0  0  0  0  0  0  0  0  0
   16.7396   66.2520   -2.8567 H   0  0  0  0  0  0  0  0  0  0  0  0
  1 18  1  6  0  0  0
  1  6  1  0  0  0  0
  2  1  1  0  0  0  0
  3  8  1  6  0  0  0
  3  2  1  0  0  0  0
  3  4  1  0  0  0  0
  4  5  1  1  0  0  0
  4  6  1  0  0  0  0
  6  7  1  1  0  0  0
  9  8  1  0  0  0  0
 10  9  2  0  0  0  0
 11 10  1  0  0  0  0
 11 17  1  0  0  0  0
 12 11  2  0  0  0  0
 13 12  1  0  0  0  0
 14 12  1  0  0  0  0
 14 15  2  0  0  0  0
 15 16  1  0  0  0  0
 16 17  2  0  0  0  0
 16 28  1  0  0  0  0
 17  8  1  0  0  0  0
 18 20  1  0  0  0  0
 20 19  1  1  0  0  0
 21 20  1  0  0  0  0
 21 22  1  0  0  0  0
 23 22  1  6  0  0  0
 23 24  1  0  0  0  0
 24 29  1  0  0  0  0
 25 27  1  0  0  0  0
 25 23  1  0  0  0  0
 26 25  2  0  0  0  0
M  CHG  3  16   1  24   1  27  -1
M  END
>  <MODEL>
3

>  <REMARK>
VINA RESULT:      -7.9      1.490      2.158
Name = ./data/cofactor_redock/pdb/l0c0.pdb
7 active torsions:
status: ('A' for Active; 'I' for Inactive)
1  A    between atoms: S1_2  and  C2_3
2  A    between atoms: S1_2  and  C6_10
3  A    between atoms: C2_3  and  C3_4
4  A    between atoms: C3_4  and  C4_5
5  A    between atoms: C4_5  and  C5_7
6  A    between atoms: C6_10  and  C7_11
7  A    between atoms: C8_13  and  N2_14
x       y       z     vdW  Elec       q    Type
_______ _______ _______ _____ _____    ______ ____

>  <TORSDO>
F 7

$$$$
./data/cofactor_redock/pdb/l0c0.pdb
 OpenBabel11272014373D

 29 31  0  0  1  0  0  0  0  0999 V2000
   21.1750   60.6050   -2.7540 C   0  0  1  0  0  3  0  0  0  0  0  0
   20.9180   61.6340   -3.6880 O   0  0  0  0  0  0  0  0  0  0  0  0
   21.1350   62.8760   -3.0520 C   0  0  2  0  0  3  0  0  0  0  0  0
   21.5880   62.6390   -1.6070 C   0  0  2  0  0  3  0  0  0  0  0  0
   22.9780   62.8350   -1.4680 O   0  0  0  0  0  1  0  0  0  0  0  0
   21.1830   61.2070   -1.3520 C   0  0  2  0  0  3  0  0  0  0  0  0
   22.0960   60.5490   -0.5090 O   0  0  0  0  0  1  0  0  0  0  0  0
   19.9000   63.6650   -3.0860 N   0  0  0  0  0  0  0  0  0  0  0  0
   18.6250   63.2410   -2.8800 C   0  0  0  0  0  3  0  0  0  0  0  0
   17.7100   64.2490   -2.9030 N   0  0  0  0  0  0  0  0  0  0  0  0
   18.4740   65.3370   -3.1240 C   0  0  0  0  0  0  0  0  0  0  0  0
   18.1000   66.6720   -3.2210 C   0  0  0  0  0  0  0  0  0  0  0  0
   16.7310   67.0740   -3.1140 N   0  0  0  0  0  1  0  0  0  0  0  0
   19.0910   67.5960   -3.4200 N   0  3  0  0  0  0  0  0  0  0  0  0
   20.4080   67.2170   -3.5160 C   0  0  0  0  0  3  0  0  0  0  0  0
   20.7630   65.9000   -3.4160 N   0  0  0  0  0  0  0  0  0  0  0  0
   19.7770   64.9910   -3.2250 C   0  0  0  0  0  0  0  0  0  0  0  0
   20.1190   59.5010   -2.8840 C   0  0  0  0  0  2  0  0  0  0  0  0
   19.6690   57.1050   -4.5010 C   0  0  0  0  0  1  0  0  0  0  0  0
   20.1180   58.8250   -4.5380 S   0  0  1  0  0  3  0  0  0  0  0  0
   19.0230   59.7250   -5.6290 C   0  0  0  0  0  2  0  0  0  0  0  0
   19.6780   60.0750   -6.9780 C   0  0  0  0  0  2  0  0  0  0  0  0
   19.8210   58.8830   -7.9510 C   0  0  2  0  0  3  0  0  0  0  0  0
   21.2400   58.6160   -8.1950 N   0  3  0  0  0  2  0  0  0  0  0  0
   19.0990   59.1250   -9.2520 C   0  0  0  0  0  0  0  0  0  0  0  0
   17.9830   58.5840   -9.4780 O   0  5  0  0  0  0  0  0  0  0  0  0
   19.6550   59.9730  -10.2020 O   0  0  0  0  0  0  0  0  0  0  0  0
   18.8554   68.5489   -3.4956 H   0  0  0  0  0  0  0  0  0  0  0  0
   21.7134   58.4547   -7.3060 H   0  0  0  0  0  0  0  0  0  0  0  0
  1 18  1  1  0  0  0
  1  6  1  0  0  0  0
  2  3  1  0  0  0  0
  2  1  1  0  0  0  0
  3  8  1  1  0  0  0
  3  4  1  0  0  0  0
  4  5  1  6  0  0  0
  4  6  1  0  0  0  0
  6  7  1  1  0  0  0
  8  9  1  0  0  0  0
 10  9  2  0  0  0  0
 11 10  1  0  0  0  0
 12 11  1  0  0  0  0
 12 13  1  0  0  0  0
 14 12  2  0  0  0  0
 14 28  1  0  0  0  0
 15 14  1  0  0  0  0
 15 16  2  0  0  0  0
 16 17  1  0  0  0  0
 17 11  2  0  0  0  0
 17  8  1  0  0  0  0
 20 19  1  1  0  0  0
 20 18  1  0  0  0  0
 21 20  1  0  0  0  0
 22 21  1  0  0  0  0
 23 24  1  0  0  0  0
 23 22  1  1  0  0  0
 24 29  1  0  0  0  0
 25 23  1  0  0  0  0
 26 25  1  0  0  0  0
 27 25  2  0  0  0  0
M  CHG  3  14   1  24   1  26  -1
M  END
>  <MODEL>
4

>  <REMARK>
VINA RESULT:      -7.8      2.935      8.505
Name = ./data/cofactor_redock/pdb/l0c0.pdb
7 active torsions:
status: ('A' for Active; 'I' for Inactive)
1  A    between atoms: S1_2  and  C2_3
2  A    between atoms: S1_2  and  C6_10
3  A    between atoms: C2_3  and  C3_4
4  A    between atoms: C3_4  and  C4_5
5  A    between atoms: C4_5  and  C5_7
6  A    between atoms: C6_10  and  C7_11
7  A    between atoms: C8_13  and  N2_14
x       y       z     vdW  Elec       q    Type
_______ _______ _______ _____ _____    ______ ____

>  <TORSDO>
F 7

$$$$
./data/cofactor_redock/pdb/l0c0.pdb
 OpenBabel11272014373D

 29 31  0  0  1  0  0  0  0  0999 V2000
   19.5880   59.6050   -5.7140 C   0  0  1  0  0  3  0  0  0  0  0  0
   19.1930   59.7820   -4.3690 O   0  0  0  0  0  0  0  0  0  0  0  0
   19.5460   61.0900   -3.9700 C   0  0  2  0  0  3  0  0  0  0  0  0
   20.1970   61.8260   -5.1460 C   0  0  2  0  0  3  0  0  0  0  0  0
   19.2980   62.7350   -5.7430 O   0  0  0  0  0  1  0  0  0  0  0  0
   20.5810   60.7050   -6.0810 C   0  0  2  0  0  3  0  0  0  0  0  0
   20.4600   61.0840   -7.4290 O   0  0  0  0  0  1  0  0  0  0  0  0
   20.4640   61.0230   -2.8290 N   0  0  0  0  0  0  0  0  0  0  0  0
   20.9660   59.9170   -2.2180 C   0  0  0  0  0  3  0  0  0  0  0  0
   21.8610   60.2050   -1.2320 N   0  0  0  0  0  0  0  0  0  0  0  0
   21.9070   61.5510   -1.2580 C   0  0  0  0  0  0  0  0  0  0  0  0
   22.6730   62.4220   -0.4910 C   0  0  0  0  0  0  0  0  0  0  0  0
   23.5600   61.9420    0.5240 N   0  0  0  0  0  1  0  0  0  0  0  0
   22.5540   63.7630   -0.7440 N   0  3  0  0  0  0  0  0  0  0  0  0
   21.7090   64.2300   -1.7220 C   0  0  0  0  0  3  0  0  0  0  0  0
   20.9630   63.3620   -2.4710 N   0  0  0  0  0  0  0  0  0  0  0  0
   21.0830   62.0380   -2.2120 C   0  0  0  0  0  0  0  0  0  0  0  0
   20.1980   58.2120   -5.9040 C   0  0  0  0  0  2  0  0  0  0  0  0
   18.1920   58.3970   -8.0250 C   0  0  0  0  0  1  0  0  0  0  0  0
   19.5210   57.4230   -7.3560 S   0  0  1  0  0  3  0  0  0  0  0  0
   20.7670   57.1390   -8.6070 C   0  0  0  0  0  2  0  0  0  0  0  0
   21.5390   58.4170   -8.9830 C   0  0  0  0  0  2  0  0  0  0  0  0
   21.5520   58.7380  -10.4950 C   0  0  2  0  0  3  0  0  0  0  0  0
   22.9300   58.7130  -10.9900 N   0  3  0  0  0  2  0  0  0  0  0  0
   20.9080   60.0670  -10.7960 C   0  0  0  0  0  0  0  0  0  0  0  0
   19.7270   60.3080  -10.4260 O   0  5  0  0  0  0  0  0  0  0  0  0
   21.6310   61.0480  -11.4650 O   0  0  0  0  0  0  0  0  0  0  0  0
   23.0832   64.4035   -0.2159 H   0  0  0  0  0  0  0  0  0  0  0  0
   23.3508   57.8082  -10.7786 H   0  0  0  0  0  0  0  0  0  0  0  0
  1 18  1  1  0  0  0
  1  2  1  0  0  0  0
  2  3  1  0  0  0  0
  3  8  1  1  0  0  0
  4  5  1  6  0  0  0
  4  3  1  0  0  0  0
  6  7  1  6  0  0  0
  6  1  1  0  0  0  0
  6  4  1  0  0  0  0
  8  9  1  0  0  0  0
  8 17  1  0  0  0  0
  9 10  2  0  0  0  0
 11 10  1  0  0  0  0
 11 12  1  0  0  0  0
 12 13  1  0  0  0  0
 14 12  2  0  0  0  0
 14 28  1  0  0  0  0
 15 14  1  0  0  0  0
 16 17  1  0  0  0  0
 16 15  2  0  0  0  0
 17 11  2  0  0  0  0
 20 19  1  6  0  0  0
 20 18  1  0  0  0  0
 21 20  1  0  0  0  0
 22 21  1  0  0  0  0
 23 24  1  0  0  0  0
 23 22  1  1  0  0  0
 24 29  1  0  0  0  0
 25 23  1  0  0  0  0
 25 26  1  0  0  0  0
 27 25  2  0  0  0  0
M  CHG  3  14   1  24   1  26  -1
M  END
>  <MODEL>
5

>  <REMARK>
VINA RESULT:      -7.5      2.842      8.303
Name = ./data/cofactor_redock/pdb/l0c0.pdb
7 active torsions:
status: ('A' for Active; 'I' for Inactive)
1  A    between atoms: S1_2  and  C2_3
2  A    between atoms: S1_2  and  C6_10
3  A    between atoms: C2_3  and  C3_4
4  A    between atoms: C3_4  and  C4_5
5  A    between atoms: C4_5  and  C5_7
6  A    between atoms: C6_10  and  C7_11
7  A    between atoms: C8_13  and  N2_14
x       y       z     vdW  Elec       q    Type
_______ _______ _______ _____ _____    ______ ____

>  <TORSDO>
F 7

$$$$
./data/cofactor_redock/pdb/l0c0.pdb
 OpenBabel11272014373D

 29 31  0  0  1  0  0  0  0  0999 V2000
   19.4560   55.7020   -8.2110 C   0  0  1  0  0  3  0  0  0  0  0  0
   20.4360   56.3410   -7.4190 O   0  0  0  0  0  0  0  0  0  0  0  0
   19.8150   56.8230   -6.2460 C   0  0  2  0  0  3  0  0  0  0  0  0
   18.3280   56.4530   -6.2640 C   0  0  2  0  0  3  0  0  0  0  0  0
   18.0620   55.3580   -5.4150 O   0  0  0  0  0  1  0  0  0  0  0  0
   18.0750   56.1240   -7.7160 C   0  0  2  0  0  3  0  0  0  0  0  0
   17.1330   55.0910   -7.8610 O   0  0  0  0  0  1  0  0  0  0  0  0
   19.9860   58.2770   -6.1650 N   0  0  0  0  0  0  0  0  0  0  0  0
   19.9460   59.1860   -7.1740 C   0  0  0  0  0  3  0  0  0  0  0  0
   20.0630   60.4740   -6.7460 N   0  0  0  0  0  0  0  0  0  0  0  0
   20.1700   60.3330   -5.4110 C   0  0  0  0  0  0  0  0  0  0  0  0
   20.2900   61.3090   -4.4280 C   0  0  0  0  0  0  0  0  0  0  0  0
   20.3440   62.7000   -4.7580 N   0  0  0  0  0  1  0  0  0  0  0  0
   20.3490   60.8930   -3.1240 N   0  3  0  0  0  0  0  0  0  0  0  0
   20.2900   59.5590   -2.7990 C   0  0  0  0  0  3  0  0  0  0  0  0
   20.1700   58.6090   -3.7760 N   0  0  0  0  0  0  0  0  0  0  0  0
   20.1170   59.0270   -5.0640 C   0  0  0  0  0  0  0  0  0  0  0  0
   19.6570   56.0620   -9.6880 C   0  0  0  0  0  2  0  0  0  0  0  0
   22.2850   55.1960  -10.6360 C   0  0  0  0  0  1  0  0  0  0  0  0
   21.3460   56.5600   -9.9880 S   0  0  1  0  0  3  0  0  0  0  0  0
   21.4450   57.9590  -11.0990 C   0  0  0  0  0  2  0  0  0  0  0  0
   22.1300   59.1810  -10.4610 C   0  0  0  0  0  2  0  0  0  0  0  0
   21.2980   60.4820  -10.5120 C   0  0  2  0  0  3  0  0  0  0  0  0
   19.8700   60.1520  -10.5010 N   0  3  0  0  0  2  0  0  0  0  0  0
   21.6340   61.3220  -11.7180 C   0  0  0  0  0  0  0  0  0  0  0  0
   21.1340   61.0580  -12.8450 O   0  0  0  0  0  0  0  0  0  0  0  0
   22.4830   62.4140  -11.5830 O   0  5  0  0  0  0  0  0  0  0  0  0
   20.4352   61.5618   -2.4067 H   0  0  0  0  0  0  0  0  0  0  0  0
   19.6585   59.5843   -9.6804 H   0  0  0  0  0  0  0  0  0  0  0  0
  1 18  1  6  0  0  0
  1  6  1  0  0  0  0
  1  2  1  0  0  0  0
  2  3  1  0  0  0  0
  3  8  1  6  0  0  0
  4  3  1  0  0  0  0
  4  5  1  1  0  0  0
  6  7  1  1  0  0  0
  6  4  1  0  0  0  0
  8 17  1  0  0  0  0
  9 10  2  0  0  0  0
  9  8  1  0  0  0  0
 10 11  1  0  0  0  0
 11 17  2  0  0  0  0
 11 12  1  0  0  0  0
 12 14  2  0  0  0  0
 13 12  1  0  0  0  0
 14 15  1  0  0  0  0
 14 28  1  0  0  0  0
 16 15  2  0  0  0  0
 17 16  1  0  0  0  0
 20 19  1  6  0  0  0
 20 18  1  0  0  0  0
 21 22  1  0  0  0  0
 21 20  1  0  0  0  0
 23 24  1  0  0  0  0
 23 22  1  6  0  0  0
 24 29  1  0  0  0  0
 25 27  1  0  0  0  0
 25 23  1  0  0  0  0
 26 25  2  0  0  0  0
M  CHG  3  14   1  24   1  27  -1
M  END
>  <MODEL>
6

>  <REMARK>
VINA RESULT:      -7.5      4.201      7.302
Name = ./data/cofactor_redock/pdb/l0c0.pdb
7 active torsions:
status: ('A' for Active; 'I' for Inactive)
1  A    between atoms: S1_2  and  C2_3
2  A    between atoms: S1_2  and  C6_10
3  A    between atoms: C2_3  and  C3_4
4  A    between atoms: C3_4  and  C4_5
5  A    between atoms: C4_5  and  C5_7
6  A    between atoms: C6_10  and  C7_11
7  A    between atoms: C8_13  and  N2_14
x       y       z     vdW  Elec       q    Type
_______ _______ _______ _____ _____    ______ ____

>  <TORSDO>
F 7

$$$$
./data/cofactor_redock/pdb/l0c0.pdb
 OpenBabel11272014373D

 29 31  0  0  1  0  0  0  0  0999 V2000
   19.9370   57.5700   -7.6700 C   0  0  1  0  0  3  0  0  0  0  0  0
   20.0590   57.5380   -6.2630 O   0  0  0  0  0  0  0  0  0  0  0  0
   19.0970   58.4140   -5.7130 C   0  0  2  0  0  3  0  0  0  0  0  0
   18.2750   59.0460   -6.8420 C   0  0  2  0  0  3  0  0  0  0  0  0
   17.0050   58.4420   -6.9490 O   0  0  0  0  0  1  0  0  0  0  0  0
   19.1280   58.8030   -8.0640 C   0  0  2  0  0  3  0  0  0  0  0  0
   18.3460   58.5680   -9.2080 O   0  0  0  0  0  1  0  0  0  0  0  0
   19.7730   59.4480   -4.9240 N   0  0  0  0  0  0  0  0  0  0  0  0
   20.0440   60.7330   -5.2760 C   0  0  0  0  0  3  0  0  0  0  0  0
   20.6160   61.4580   -4.2750 N   0  0  0  0  0  0  0  0  0  0  0  0
   20.6840   60.5680   -3.2660 C   0  0  0  0  0  0  0  0  0  0  0  0
   21.1540   60.7390   -1.9680 C   0  0  0  0  0  0  0  0  0  0  0  0
   21.6930   61.9890   -1.5280 N   0  0  0  0  0  1  0  0  0  0  0  0
   21.0800   59.6670   -1.1200 N   0  3  0  0  0  0  0  0  0  0  0  0
   20.5570   58.4660   -1.5340 C   0  0  0  0  0  3  0  0  0  0  0  0
   20.0950   58.3120   -2.8130 N   0  0  0  0  0  0  0  0  0  0  0  0
   20.1760   59.3750   -3.6480 C   0  0  0  0  0  0  0  0  0  0  0  0
   21.3260   57.5790   -8.3180 C   0  0  0  0  0  2  0  0  0  0  0  0
   19.7810   55.7220   -9.9670 C   0  0  0  0  0  1  0  0  0  0  0  0
   21.3530   56.5270   -9.7610 S   0  0  1  0  0  3  0  0  0  0  0  0
   21.7810   57.4320  -11.2430 C   0  0  0  0  0  2  0  0  0  0  0  0
   22.1800   58.8920  -10.9580 C   0  0  0  0  0  2  0  0  0  0  0  0
   21.2610   59.9470  -11.6160 C   0  0  2  0  0  3  0  0  0  0  0  0
   21.7860   60.2970  -12.9380 N   0  3  0  0  0  2  0  0  0  0  0  0
   21.1170   61.1820  -10.7630 C   0  0  0  0  0  0  0  0  0  0  0  0
   20.5530   61.1230   -9.6370 O   0  5  0  0  0  0  0  0  0  0  0  0
   21.6340   62.3930  -11.2090 O   0  0  0  0  0  0  0  0  0  0  0  0
   21.4077   59.7584   -0.1961 H   0  0  0  0  0  0  0  0  0  0  0  0
   21.8775   59.4521  -13.5021 H   0  0  0  0  0  0  0  0  0  0  0  0
  1 18  1  6  0  0  0
  1  2  1  0  0  0  0
  2  3  1  0  0  0  0
  3  8  1  6  0  0  0
  4  5  1  6  0  0  0
  4  3  1  0  0  0  0
  6  7  1  6  0  0  0
  6  1  1  0  0  0  0
  6  4  1  0  0  0  0
  8 17  1  0  0  0  0
  9  8  1  0  0  0  0
  9 10  2  0  0  0  0
 10 11  1  0  0  0  0
 11 12  1  0  0  0  0
 12 13  1  0  0  0  0
 12 14  2  0  0  0  0
 14 28  1  0  0  0  0
 15 14  1  0  0  0  0
 16 15  2  0  0  0  0
 17 11  2  0  0  0  0
 17 16  1  0  0  0  0
 20 19  1  6  0  0  0
 20 18  1  0  0  0  0
 21 22  1  0  0  0  0
 21 20  1  0  0  0  0
 23 24  1  0  0  0  0
 23 22  1  1  0  0  0
 23 25  1  0  0  0  0
 24 29  1  0  0  0  0
 25 26  1  0  0  0  0
 27 25  2  0  0  0  0
M  CHG  3  14   1  24   1  26  -1
M  END
>  <MODEL>
7

>  <REMARK>
VINA RESULT:      -7.4      3.945      7.774
Name = ./data/cofactor_redock/pdb/l0c0.pdb
7 active torsions:
status: ('A' for Active; 'I' for Inactive)
1  A    between atoms: S1_2  and  C2_3
2  A    between atoms: S1_2  and  C6_10
3  A    between atoms: C2_3  and  C3_4
4  A    between atoms: C3_4  and  C4_5
5  A    between atoms: C4_5  and  C5_7
6  A    between atoms: C6_10  and  C7_11
7  A    between atoms: C8_13  and  N2_14
x       y       z     vdW  Elec       q    Type
_______ _______ _______ _____ _____    ______ ____

>  <TORSDO>
F 7

$$$$
./data/cofactor_redock/pdb/l0c0.pdb
 OpenBabel11272014373D

 29 31  0  0  1  0  0  0  0  0999 V2000
   20.7920   60.3490   -4.9810 C   0  0  1  0  0  3  0  0  0  0  0  0
   21.7140   61.2830   -4.4570 O   0  0  0  0  0  0  0  0  0  0  0  0
   21.5380   61.3440   -3.0570 C   0  0  2  0  0  3  0  0  0  0  0  0
   20.4380   60.3640   -2.6350 C   0  0  2  0  0  3  0  0  0  0  0  0
   20.9850   59.1960   -2.0630 O   0  0  0  0  0  1  0  0  0  0  0  0
   19.7160   60.0810   -3.9310 C   0  0  2  0  0  3  0  0  0  0  0  0
   19.2510   58.7560   -3.9910 O   0  0  0  0  0  1  0  0  0  0  0  0
   21.1880   62.7140   -2.6680 N   0  0  0  0  0  0  0  0  0  0  0  0
   21.9760   63.6460   -2.0700 C   0  0  0  0  0  3  0  0  0  0  0  0
   21.3640   64.8530   -1.9180 N   0  0  0  0  0  0  0  0  0  0  0  0
   20.1490   64.6400   -2.4600 C   0  0  0  0  0  0  0  0  0  0  0  0
   19.0860   65.5220   -2.6180 C   0  0  0  0  0  0  0  0  0  0  0  0
   19.1620   66.8740   -2.1550 N   0  0  0  0  0  1  0  0  0  0  0  0
   17.9590   65.0540   -3.2400 N   0  3  0  0  0  0  0  0  0  0  0  0
   17.8820   63.7590   -3.6930 C   0  0  0  0  0  3  0  0  0  0  0  0
   18.9360   62.9020   -3.5330 N   0  0  0  0  0  0  0  0  0  0  0  0
   20.0460   63.3700   -2.9130 C   0  0  0  0  0  0  0  0  0  0  0  0
   20.1850   60.8830   -6.2830 C   0  0  0  0  0  2  0  0  0  0  0  0
   19.3720   58.4630   -7.7110 C   0  0  0  0  0  1  0  0  0  0  0  0
   20.5560   59.7870   -7.6440 S   0  0  1  0  0  3  0  0  0  0  0  0
   20.6020   60.6540   -9.2080 C   0  0  0  0  0  2  0  0  0  0  0  0
   20.5140   59.7080  -10.4190 C   0  0  0  0  0  2  0  0  0  0  0  0
   21.8770   59.3470  -11.0520 C   0  0  2  0  0  3  0  0  0  0  0  0
   22.0110   60.0240  -12.3450 N   0  3  0  0  0  2  0  0  0  0  0  0
   22.0480   57.8590  -11.2170 C   0  0  0  0  0  0  0  0  0  0  0  0
   22.5030   57.3790  -12.2910 O   0  0  0  0  0  0  0  0  0  0  0  0
   21.7290   57.0070  -10.1670 O   0  5  0  0  0  0  0  0  0  0  0  0
   17.1903   65.6563   -3.3648 H   0  0  0  0  0  0  0  0  0  0  0  0
   21.8929   61.0289  -12.2165 H   0  0  0  0  0  0  0  0  0  0  0  0
  1 18  1  6  0  0  0
  1  2  1  0  0  0  0
  1  6  1  0  0  0  0
  2  3  1  0  0  0  0
  3  8  1  6  0  0  0
  3  4  1  0  0  0  0
  4  5  1  6  0  0  0
  6  7  1  1  0  0  0
  6  4  1  0  0  0  0
  8  9  1  0  0  0  0
  9 10  2  0  0  0  0
 11 10  1  0  0  0  0
 12 11  1  0  0  0  0
 12 13  1  0  0  0  0
 14 12  2  0  0  0  0
 14 28  1  0  0  0  0
 15 16  2  0  0  0  0
 15 14  1  0  0  0  0
 16 17  1  0  0  0  0
 17  8  1  0  0  0  0
 17 11  2  0  0  0  0
 20 19  1  6  0  0  0
 20 18  1  0  0  0  0
 21 20  1  0  0  0  0
 22 21  1  0  0  0  0
 23 24  1  0  0  0  0
 23 22  1  6  0  0  0
 24 29  1  0  0  0  0
 25 23  1  0  0  0  0
 25 27  1  0  0  0  0
 26 25  2  0  0  0  0
M  CHG  3  14   1  24   1  27  -1
M  END
>  <MODEL>
8

>  <REMARK>
VINA RESULT:      -7.3      2.846      8.753
Name = ./data/cofactor_redock/pdb/l0c0.pdb
7 active torsions:
status: ('A' for Active; 'I' for Inactive)
1  A    between atoms: S1_2  and  C2_3
2  A    between atoms: S1_2  and  C6_10
3  A    between atoms: C2_3  and  C3_4
4  A    between atoms: C3_4  and  C4_5
5  A    between atoms: C4_5  and  C5_7
6  A    between atoms: C6_10  and  C7_11
7  A    between atoms: C8_13  and  N2_14
x       y       z     vdW  Elec       q    Type
_______ _______ _______ _____ _____    ______ ____

>  <TORSDO>
F 7

$$$$
./data/cofactor_redock/pdb/l0c0.pdb
 OpenBabel11272014373D

 29 31  0  0  1  0  0  0  0  0999 V2000
   20.4750   62.3640   -3.7350 C   0  0  1  0  0  3  0  0  0  0  0  0
   21.2400   61.2000   -3.4980 O   0  0  0  0  0  0  0  0  0  0  0  0
   20.8660   60.2210   -4.4440 C   0  0  2  0  0  3  0  0  0  0  0  0
   19.7970   60.7950   -5.3800 C   0  0  2  0  0  3  0  0  0  0  0  0
   20.3470   61.1470   -6.6300 O   0  0  0  0  0  1  0  0  0  0  0  0
   19.2870   61.9970   -4.6210 C   0  0  2  0  0  3  0  0  0  0  0  0
   18.9380   63.0500   -5.4840 O   0  0  0  0  0  1  0  0  0  0  0  0
   20.3610   59.0340   -3.7460 N   0  0  0  0  0  0  0  0  0  0  0  0
   20.2440   58.8320   -2.4080 C   0  0  0  0  0  3  0  0  0  0  0  0
   19.6590   57.6440   -2.0900 N   0  0  0  0  0  0  0  0  0  0  0  0
   19.4020   57.1080   -3.2990 C   0  0  0  0  0  0  0  0  0  0  0  0
   18.7820   55.9040   -3.6170 C   0  0  0  0  0  0  0  0  0  0  0  0
   18.3310   55.0050   -2.6000 N   0  0  0  0  0  1  0  0  0  0  0  0
   18.6130   55.6090   -4.9440 N   0  3  0  0  0  0  0  0  0  0  0  0
   19.0370   56.4720   -5.9250 C   0  0  0  0  0  3  0  0  0  0  0  0
   19.6430   57.6540   -5.5980 N   0  0  0  0  0  0  0  0  0  0  0  0
   19.8120   57.9380   -4.2850 C   0  0  0  0  0  0  0  0  0  0  0  0
   20.0170   62.9720   -2.4050 C   0  0  0  0  0  2  0  0  0  0  0  0
   22.5960   63.9190   -1.4020 C   0  0  0  0  0  1  0  0  0  0  0  0
   20.9960   64.4110   -2.0020 S   0  0  1  0  0  3  0  0  0  0  0  0
   21.1730   65.5140   -3.3980 C   0  0  0  0  0  2  0  0  0  0  0  0
   19.8470   66.1830   -3.8040 C   0  0  0  0  0  2  0  0  0  0  0  0
   19.6220   67.5840   -3.1910 C   0  0  2  0  0  3  0  0  0  0  0  0
   18.3290   67.6170   -2.5020 N   0  3  0  0  0  2  0  0  0  0  0  0
   19.6920   68.6740   -4.2300 C   0  0  0  0  0  0  0  0  0  0  0  0
   18.9410   69.6840   -4.1540 O   0  5  0  0  0  0  0  0  0  0  0  0
   20.6110   68.5800   -5.2680 O   0  0  0  0  0  0  0  0  0  0  0  0
   18.1796   54.7627   -5.1994 H   0  0  0  0  0  0  0  0  0  0  0  0
   18.2971   66.8747   -1.8032 H   0  0  0  0  0  0  0  0  0  0  0  0
  1  2  1  0  0  0  0
  1 18  1  1  0  0  0
  3  8  1  1  0  0  0
  3  2  1  0  0  0  0
  4  5  1  6  0  0  0
  4  6  1  0  0  0  0
  4  3  1  0  0  0  0
  6  7  1  6  0  0  0
  6  1  1  0  0  0  0
  8  9  1  0  0  0  0
  9 10  2  0  0  0  0
 11 10  1  0  0  0  0
 12 11  1  0  0  0  0
 12 13  1  0  0  0  0
 14 12  2  0  0  0  0
 14 28  1  0  0  0  0
 15 16  2  0  0  0  0
 15 14  1  0  0  0  0
 16 17  1  0  0  0  0
 17  8  1  0  0  0  0
 17 11  2  0  0  0  0
 18 20  1  0  0  0  0
 20 19  1  6  0  0  0
 21 20  1  0  0  0  0
 22 21  1  0  0  0  0
 23 22  1  6  0  0  0
 23 24  1  0  0  0  0
 24 29  1  0  0  0  0
 25 26  1  0  0  0  0
 25 23  1  0  0  0  0
 27 25  2  0  0  0  0
M  CHG  3  14   1  24   1  26  -1
M  END
>  <MODEL>
9

>  <REMARK>
VINA RESULT:      -7.0      4.027      5.564
Name = ./data/cofactor_redock/pdb/l0c0.pdb
7 active torsions:
status: ('A' for Active; 'I' for Inactive)
1  A    between atoms: S1_2  and  C2_3
2  A    between atoms: S1_2  and  C6_10
3  A    between atoms: C2_3  and  C3_4
4  A    between atoms: C3_4  and  C4_5
5  A    between atoms: C4_5  and  C5_7
6  A    between atoms: C6_10  and  C7_11
7  A    between atoms: C8_13  and  N2_14
x       y       z     vdW  Elec       q    Type
_______ _______ _______ _____ _____    ______ ____

>  <TORSDO>
F 7

$$$$
