./data/cofactor_redock/pdb/l1c0.pdb
 OpenBabel11272014163D

 26 28  0  0  1  0  0  0  0  0999 V2000
   -3.5550   41.9420   -0.7930 C   0  0  2  0  0  3  0  0  0  0  0  0
   -3.8890   43.0790   -1.5650 O   0  0  0  0  0  0  0  0  0  0  0  0
   -2.9630   43.1790   -2.6260 C   0  0  1  0  0  3  0  0  0  0  0  0
   -2.2890   41.8220   -2.8050 C   0  0  1  0  0  3  0  0  0  0  0  0
   -0.9760   41.9640   -3.2810 O   0  0  0  0  0  1  0  0  0  0  0  0
   -2.3350   41.2490   -1.4080 C   0  0  1  0  0  3  0  0  0  0  0  0
   -1.1620   41.5290   -0.6770 O   0  0  0  0  0  1  0  0  0  0  0  0
   -8.6860   38.8290    0.2330 N   0  0  0  0  0  1  0  0  0  0  0  0
   -7.8820   40.0050    0.3170 C   0  0  0  0  0  0  0  0  0  0  0  0
   -8.3370   41.1130    0.9760 N   0  0  0  0  0  0  0  0  0  0  0  0
   -7.5730   42.2470    1.0780 C   0  0  0  0  0  3  0  0  0  0  0  0
   -6.3270   42.2970    0.5170 N   0  0  0  0  0  0  0  0  0  0  0  0
   -5.8810   41.2000   -0.1460 C   0  0  0  0  0  0  0  0  0  0  0  0
   -6.6150   40.0680   -0.2510 C   0  0  0  0  0  0  0  0  0  0  0  0
   -5.9270   39.1170   -0.9090 N   0  0  0  0  0  0  0  0  0  0  0  0
   -4.7490   39.7380   -1.1920 C   0  0  0  0  0  3  0  0  0  0  0  0
   -4.6950   41.0230   -0.7490 N   0  0  0  0  0  0  0  0  0  0  0  0
   -3.6870   43.6530   -3.8920 C   0  0  0  0  0  2  0  0  0  0  0  0
   -2.6390   44.8110   -4.8540 S   0  0  0  0  0  0  0  0  0  0  0  0
   -2.7180   46.2240   -3.6920 C   0  0  0  0  0  2  0  0  0  0  0  0
   -1.9390   47.4420   -4.2130 C   0  0  0  0  0  2  0  0  0  0  0  0
   -2.8220   48.6970   -4.4130 C   0  0  2  0  0  3  0  0  0  0  0  0
   -3.4780   48.6690   -5.7220 N   0  0  0  0  0  1  0  0  0  0  0  0
   -2.0210   49.9620   -4.2830 C   0  0  0  0  0  0  0  0  0  0  0  0
   -2.0980   50.8600   -5.1640 O   0  0  0  0  0  0  0  0  0  0  0  0
   -1.1790   50.1430   -3.1930 O   0  0  0  0  0  1  0  0  0  0  0  0
  1 17  1  6  0  0  0
  2  1  1  0  0  0  0
  3 18  1  6  0  0  0
  3  2  1  0  0  0  0
  4  5  1  1  0  0  0
  4  3  1  0  0  0  0
  4  6  1  0  0  0  0
  6  1  1  0  0  0  0
  6  7  1  1  0  0  0
  8  9  1  0  0  0  0
  9 10  1  0  0  0  0
 10 11  2  0  0  0  0
 12 11  1  0  0  0  0
 13 12  2  0  0  0  0
 14 13  1  0  0  0  0
 14  9  2  0  0  0  0
 15 14  1  0  0  0  0
 16 15  2  0  0  0  0
 16 17  1  0  0  0  0
 17 13  1  0  0  0  0
 19 18  1  0  0  0  0
 19 20  1  0  0  0  0
 21 20  1  0  0  0  0
 22 23  1  6  0  0  0
 22 24  1  0  0  0  0
 22 21  1  0  0  0  0
 24 26  1  0  0  0  0
 25 24  2  0  0  0  0
M  END
>  <MODEL>
1

>  <REMARK>
 VINA RESULT:      -8.6      0.000      0.000
  Name = ./data/cofactor_redock/pdb/l1c0.pdb
  7 active torsions:
  status: ('A' for Active; 'I' for Inactive)
    1  A    between atoms: N5_10  and  C6_11
    2  A    between atoms: C7_13  and  C8_14
    3  A    between atoms: C8_14  and  S1_15
    4  A    between atoms: S1_15  and  C9_16
    5  A    between atoms: C9_16  and  C10_17
    6  A    between atoms: C10_17  and  C11_18
    7  A    between atoms: C11_18  and  C12_20
                            x       y       z     vdW  Elec       q    Type
                         _______ _______ _______ _____ _____    ______ ____

>  <TORSDO>
F 7

$$$$
./data/cofactor_redock/pdb/l1c0.pdb
 OpenBabel11272014163D

 26 28  0  0  1  0  0  0  0  0999 V2000
   -3.0010   44.6190   -4.5280 C   0  0  2  0  0  3  0  0  0  0  0  0
   -3.6200   43.9920   -3.4220 O   0  0  0  0  0  0  0  0  0  0  0  0
   -3.0630   42.7030   -3.2780 C   0  0  1  0  0  3  0  0  0  0  0  0
   -1.7360   42.6660   -4.0290 C   0  0  1  0  0  3  0  0  0  0  0  0
   -1.4660   41.3820   -4.5260 O   0  0  0  0  0  1  0  0  0  0  0  0
   -1.9590   43.6730   -5.1330 C   0  0  1  0  0  3  0  0  0  0  0  0
   -2.4350   43.0720   -6.3160 O   0  0  0  0  0  1  0  0  0  0  0  0
   -1.0400   50.3010   -3.5580 N   0  0  0  0  0  1  0  0  0  0  0  0
   -1.9830   49.3580   -4.0660 C   0  0  0  0  0  0  0  0  0  0  0  0
   -3.0790   49.7780   -4.7670 N   0  0  0  0  0  0  0  0  0  0  0  0
   -3.9890   48.8870   -5.2730 C   0  0  0  0  0  3  0  0  0  0  0  0
   -3.8200   47.5420   -5.0870 N   0  0  0  0  0  0  0  0  0  0  0  0
   -2.7370   47.1270   -4.3810 C   0  0  0  0  0  0  0  0  0  0  0  0
   -1.8230   47.9890   -3.8800 C   0  0  0  0  0  0  0  0  0  0  0  0
   -0.8260   47.3220   -3.2710 N   0  0  0  0  0  0  0  0  0  0  0  0
   -1.1920   46.0210   -3.4320 C   0  0  0  0  0  3  0  0  0  0  0  0
   -2.3670   45.8690   -4.0980 N   0  0  0  0  0  0  0  0  0  0  0  0
   -2.9080   42.3780   -1.7870 C   0  0  0  0  0  2  0  0  0  0  0  0
   -4.2560   41.2760   -1.2110 S   0  0  0  0  0  0  0  0  0  0  0  0
   -5.4370   42.5850   -0.7140 C   0  0  0  0  0  2  0  0  0  0  0  0
   -6.0770   42.2940    0.6530 C   0  0  0  0  0  2  0  0  0  0  0  0
   -7.5760   41.9180    0.5620 C   0  0  2  0  0  3  0  0  0  0  0  0
   -8.3220   42.4760    1.6920 N   0  0  0  0  0  1  0  0  0  0  0  0
   -7.7700   40.4280    0.5220 C   0  0  0  0  0  0  0  0  0  0  0  0
   -8.3840   39.8390    1.4510 O   0  0  0  0  0  1  0  0  0  0  0  0
   -7.2610   39.6900   -0.5390 O   0  0  0  0  0  0  0  0  0  0  0  0
  1 17  1  1  0  0  0
  1  2  1  0  0  0  0
  2  3  1  0  0  0  0
  3 18  1  1  0  0  0
  4  5  1  6  0  0  0
  4  3  1  0  0  0  0
  6  7  1  6  0  0  0
  6  1  1  0  0  0  0
  6  4  1  0  0  0  0
  9 14  1  0  0  0  0
  9  8  1  0  0  0  0
 10  9  2  0  0  0  0
 11 12  2  0  0  0  0
 11 10  1  0  0  0  0
 12 13  1  0  0  0  0
 13 17  1  0  0  0  0
 13 14  2  0  0  0  0
 14 15  1  0  0  0  0
 16 15  2  0  0  0  0
 17 16  1  0  0  0  0
 18 19  1  0  0  0  0
 19 20  1  0  0  0  0
 20 21  1  0  0  0  0
 22 21  1  0  0  0  0
 22 23  1  1  0  0  0
 24 22  1  0  0  0  0
 24 25  1  0  0  0  0
 26 24  2  0  0  0  0
M  END
>  <MODEL>
2

>  <REMARK>
 VINA RESULT:      -8.4      3.040      8.629
  Name = ./data/cofactor_redock/pdb/l1c0.pdb
  7 active torsions:
  status: ('A' for Active; 'I' for Inactive)
    1  A    between atoms: N5_10  and  C6_11
    2  A    between atoms: C7_13  and  C8_14
    3  A    between atoms: C8_14  and  S1_15
    4  A    between atoms: S1_15  and  C9_16
    5  A    between atoms: C9_16  and  C10_17
    6  A    between atoms: C10_17  and  C11_18
    7  A    between atoms: C11_18  and  C12_20
                            x       y       z     vdW  Elec       q    Type
                         _______ _______ _______ _____ _____    ______ ____

>  <TORSDO>
F 7

$$$$
./data/cofactor_redock/pdb/l1c0.pdb
 OpenBabel11272014163D

 26 28  0  0  1  0  0  0  0  0999 V2000
   -2.1840   41.3070   -1.5680 C   0  0  2  0  0  3  0  0  0  0  0  0
   -1.8950   42.6670   -1.3070 O   0  0  0  0  0  0  0  0  0  0  0  0
   -1.6160   43.3020   -2.5360 C   0  0  1  0  0  3  0  0  0  0  0  0
   -2.1780   42.4390   -3.6620 C   0  0  1  0  0  3  0  0  0  0  0  0
   -1.4150   42.5670   -4.8330 O   0  0  0  0  0  1  0  0  0  0  0  0
   -2.1010   41.0490   -3.0760 C   0  0  1  0  0  3  0  0  0  0  0  0
   -0.9010   40.3910   -3.4190 O   0  0  0  0  0  1  0  0  0  0  0  0
   -7.4750   38.8620    0.1920 N   0  0  0  0  0  1  0  0  0  0  0  0
   -6.0970   38.7710   -0.1670 C   0  0  0  0  0  0  0  0  0  0  0  0
   -5.4760   37.5560   -0.2380 N   0  0  0  0  0  0  0  0  0  0  0  0
   -4.1560   37.4470   -0.5940 C   0  0  0  0  0  3  0  0  0  0  0  0
   -3.4240   38.5640   -0.8880 N   0  0  0  0  0  0  0  0  0  0  0  0
   -4.0390   39.7700   -0.8060 C   0  0  0  0  0  0  0  0  0  0  0  0
   -5.3420   39.8990   -0.4660 C   0  0  0  0  0  0  0  0  0  0  0  0
   -5.7170   41.1900   -0.5100 N   0  0  0  0  0  0  0  0  0  0  0  0
   -4.5750   41.8240   -0.8910 C   0  0  0  0  0  3  0  0  0  0  0  0
   -3.5230   40.9810   -1.0680 N   0  0  0  0  0  0  0  0  0  0  0  0
   -2.2050   44.7180   -2.5250 C   0  0  0  0  0  2  0  0  0  0  0  0
   -3.5580   44.8770   -3.7520 S   0  0  0  0  0  0  0  0  0  0  0  0
   -2.7500   46.1130   -4.8370 C   0  0  0  0  0  2  0  0  0  0  0  0
   -2.3420   47.3780   -4.0640 C   0  0  0  0  0  2  0  0  0  0  0  0
   -2.9320   48.6780   -4.6590 C   0  0  2  0  0  3  0  0  0  0  0  0
   -3.0960   48.5600   -6.1100 N   0  0  0  0  0  1  0  0  0  0  0  0
   -2.0680   49.8690   -4.3490 C   0  0  0  0  0  0  0  0  0  0  0  0
   -2.1190   50.9000   -5.0710 O   0  0  0  0  0  0  0  0  0  0  0  0
   -1.1980   49.8320   -3.2670 O   0  0  0  0  0  1  0  0  0  0  0  0
  1  2  1  0  0  0  0
  1 17  1  6  0  0  0
  3 18  1  1  0  0  0
  3  2  1  0  0  0  0
  4  5  1  6  0  0  0
  4  6  1  0  0  0  0
  4  3  1  0  0  0  0
  6  7  1  1  0  0  0
  6  1  1  0  0  0  0
  9  8  1  0  0  0  0
 10  9  1  0  0  0  0
 11 10  2  0  0  0  0
 12 13  2  0  0  0  0
 12 11  1  0  0  0  0
 13 14  1  0  0  0  0
 14  9  2  0  0  0  0
 15 14  1  0  0  0  0
 16 15  2  0  0  0  0
 17 16  1  0  0  0  0
 17 13  1  0  0  0  0
 19 18  1  0  0  0  0
 20 21  1  0  0  0  0
 20 19  1  0  0  0  0
 22 23  1  6  0  0  0
 22 24  1  0  0  0  0
 22 21  1  0  0  0  0
 24 26  1  0  0  0  0
 25 24  2  0  0  0  0
M  END
>  <MODEL>
3

>  <REMARK>
 VINA RESULT:      -7.7      1.487      2.343
  Name = ./data/cofactor_redock/pdb/l1c0.pdb
  7 active torsions:
  status: ('A' for Active; 'I' for Inactive)
    1  A    between atoms: N5_10  and  C6_11
    2  A    between atoms: C7_13  and  C8_14
    3  A    between atoms: C8_14  and  S1_15
    4  A    between atoms: S1_15  and  C9_16
    5  A    between atoms: C9_16  and  C10_17
    6  A    between atoms: C10_17  and  C11_18
    7  A    between atoms: C11_18  and  C12_20
                            x       y       z     vdW  Elec       q    Type
                         _______ _______ _______ _____ _____    ______ ____

>  <TORSDO>
F 7

$$$$
./data/cofactor_redock/pdb/l1c0.pdb
 OpenBabel11272014163D

 26 28  0  0  1  0  0  0  0  0999 V2000
   -2.1600   42.0630   -2.6790 C   0  0  2  0  0  3  0  0  0  0  0  0
   -1.5040   43.2170   -2.1900 O   0  0  0  0  0  0  0  0  0  0  0  0
   -1.4170   44.1540   -3.2420 C   0  0  1  0  0  3  0  0  0  0  0  0
   -2.4410   43.7760   -4.3080 C   0  0  1  0  0  3  0  0  0  0  0  0
   -2.0050   44.1500   -5.5880 O   0  0  0  0  0  1  0  0  0  0  0  0
   -2.5390   42.2780   -4.1480 C   0  0  1  0  0  3  0  0  0  0  0  0
   -1.6600   41.5900   -5.0110 O   0  0  0  0  0  1  0  0  0  0  0  0
   -6.9980   39.8620    0.2910 N   0  0  0  0  0  1  0  0  0  0  0  0
   -5.7480   39.7080   -0.3800 C   0  0  0  0  0  0  0  0  0  0  0  0
   -5.2160   38.4650   -0.5840 N   0  0  0  0  0  0  0  0  0  0  0  0
   -4.0230   38.2960   -1.2380 C   0  0  0  0  0  3  0  0  0  0  0  0
   -3.3300   39.3790   -1.7050 N   0  0  0  0  0  0  0  0  0  0  0  0
   -3.8530   40.6120   -1.4920 C   0  0  0  0  0  0  0  0  0  0  0  0
   -5.0330   40.8010   -0.8570 C   0  0  0  0  0  0  0  0  0  0  0  0
   -5.3490   42.1080   -0.8230 N   0  0  0  0  0  0  0  0  0  0  0  0
   -4.3000   42.6890   -1.4670 C   0  0  0  0  0  3  0  0  0  0  0  0
   -3.3580   41.7990   -1.8780 N   0  0  0  0  0  0  0  0  0  0  0  0
   -1.6350   45.5670   -2.6850 C   0  0  0  0  0  2  0  0  0  0  0  0
   -0.1060   46.5700   -2.8200 S   0  0  0  0  0  0  0  0  0  0  0  0
   -0.8760   48.0870   -3.4970 C   0  0  0  0  0  2  0  0  0  0  0  0
   -2.2950   47.8250   -4.0260 C   0  0  0  0  0  2  0  0  0  0  0  0
   -2.6370   48.6380   -5.2980 C   0  0  2  0  0  3  0  0  0  0  0  0
   -2.9730   50.0220   -4.9570 N   0  0  0  0  0  1  0  0  0  0  0  0
   -3.7760   48.0200   -6.0590 C   0  0  0  0  0  0  0  0  0  0  0  0
   -3.5730   47.4530   -7.1650 O   0  0  0  0  0  0  0  0  0  0  0  0
   -5.0670   48.0820   -5.5470 O   0  0  0  0  0  1  0  0  0  0  0  0
  1  2  1  0  0  0  0
  1 17  1  1  0  0  0
  3 18  1  1  0  0  0
  3  2  1  0  0  0  0
  4  5  1  6  0  0  0
  4  6  1  0  0  0  0
  4  3  1  0  0  0  0
  6  7  1  6  0  0  0
  6  1  1  0  0  0  0
  9  8  1  0  0  0  0
 10  9  1  0  0  0  0
 11 10  2  0  0  0  0
 12 13  2  0  0  0  0
 12 11  1  0  0  0  0
 13 14  1  0  0  0  0
 14 15  1  0  0  0  0
 14  9  2  0  0  0  0
 16 15  2  0  0  0  0
 17 13  1  0  0  0  0
 17 16  1  0  0  0  0
 19 18  1  0  0  0  0
 20 19  1  0  0  0  0
 21 20  1  0  0  0  0
 22 23  1  1  0  0  0
 22 21  1  0  0  0  0
 24 26  1  0  0  0  0
 24 22  1  0  0  0  0
 25 24  2  0  0  0  0
M  END
>  <MODEL>
4

>  <REMARK>
 VINA RESULT:      -7.7      2.154      3.177
  Name = ./data/cofactor_redock/pdb/l1c0.pdb
  7 active torsions:
  status: ('A' for Active; 'I' for Inactive)
    1  A    between atoms: N5_10  and  C6_11
    2  A    between atoms: C7_13  and  C8_14
    3  A    between atoms: C8_14  and  S1_15
    4  A    between atoms: S1_15  and  C9_16
    5  A    between atoms: C9_16  and  C10_17
    6  A    between atoms: C10_17  and  C11_18
    7  A    between atoms: C11_18  and  C12_20
                            x       y       z     vdW  Elec       q    Type
                         _______ _______ _______ _____ _____    ______ ____

>  <TORSDO>
F 7

$$$$
./data/cofactor_redock/pdb/l1c0.pdb
 OpenBabel11272014163D

 26 28  0  0  1  0  0  0  0  0999 V2000
   -1.0260   39.8110   -5.0700 C   0  0  2  0  0  3  0  0  0  0  0  0
   -1.2570   38.6360   -4.3170 O   0  0  0  0  0  0  0  0  0  0  0  0
   -0.0220   37.9750   -4.1410 C   0  0  1  0  0  3  0  0  0  0  0  0
    1.1000   38.9770   -4.3980 C   0  0  1  0  0  3  0  0  0  0  0  0
    2.2400   38.3440   -4.9170 O   0  0  0  0  0  1  0  0  0  0  0  0
    0.4680   39.9260   -5.3890 C   0  0  1  0  0  3  0  0  0  0  0  0
    0.7380   39.5610   -6.7240 O   0  0  0  0  0  1  0  0  0  0  0  0
   -2.6660   45.2570   -2.8970 N   0  0  0  0  0  1  0  0  0  0  0  0
   -2.3840   44.3550   -3.9660 C   0  0  0  0  0  0  0  0  0  0  0  0
   -2.4210   44.7800   -5.2650 N   0  0  0  0  0  0  0  0  0  0  0  0
   -2.1400   43.9310   -6.3040 C   0  0  0  0  0  3  0  0  0  0  0  0
   -1.8140   42.6250   -6.0630 N   0  0  0  0  0  0  0  0  0  0  0  0
   -1.7880   42.2010   -4.7740 C   0  0  0  0  0  0  0  0  0  0  0  0
   -2.0530   43.0240   -3.7330 C   0  0  0  0  0  0  0  0  0  0  0  0
   -1.9080   42.3730   -2.5650 N   0  0  0  0  0  0  0  0  0  0  0  0
   -1.5460   41.1220   -2.9600 C   0  0  0  0  0  3  0  0  0  0  0  0
   -1.4760   40.9800   -4.3100 N   0  0  0  0  0  0  0  0  0  0  0  0
    0.0360   37.3690   -2.7340 C   0  0  0  0  0  2  0  0  0  0  0  0
   -1.5090   36.4610   -2.3440 S   0  0  0  0  0  0  0  0  0  0  0  0
   -2.2750   37.7420   -1.2830 C   0  0  0  0  0  2  0  0  0  0  0  0
   -3.7260   38.0400   -1.6960 C   0  0  0  0  0  2  0  0  0  0  0  0
   -4.6220   38.4850   -0.5150 C   0  0  2  0  0  3  0  0  0  0  0  0
   -5.5940   37.4430   -0.1790 N   0  0  0  0  0  1  0  0  0  0  0  0
   -5.3470   39.7640   -0.8240 C   0  0  0  0  0  0  0  0  0  0  0  0
   -4.7350   40.7380   -1.3390 O   0  0  0  0  0  0  0  0  0  0  0  0
   -6.7000   39.8830   -0.5320 O   0  0  0  0  0  1  0  0  0  0  0  0
  1  2  1  0  0  0  0
  1 17  1  1  0  0  0
  2  3  1  0  0  0  0
  3 18  1  1  0  0  0
  4  5  1  6  0  0  0
  4  3  1  0  0  0  0
  6  7  1  6  0  0  0
  6  1  1  0  0  0  0
  6  4  1  0  0  0  0
  9 14  1  0  0  0  0
  9  8  1  0  0  0  0
 10  9  2  0  0  0  0
 11 12  2  0  0  0  0
 11 10  1  0  0  0  0
 12 13  1  0  0  0  0
 13 17  1  0  0  0  0
 13 14  2  0  0  0  0
 14 15  1  0  0  0  0
 16 15  2  0  0  0  0
 17 16  1  0  0  0  0
 18 19  1  0  0  0  0
 19 20  1  0  0  0  0
 21 20  1  0  0  0  0
 21 22  1  0  0  0  0
 22 23  1  6  0  0  0
 24 26  1  0  0  0  0
 24 22  1  0  0  0  0
 25 24  2  0  0  0  0
M  END
>  <MODEL>
5

>  <REMARK>
 VINA RESULT:      -6.9      4.549      8.196
  Name = ./data/cofactor_redock/pdb/l1c0.pdb
  7 active torsions:
  status: ('A' for Active; 'I' for Inactive)
    1  A    between atoms: N5_10  and  C6_11
    2  A    between atoms: C7_13  and  C8_14
    3  A    between atoms: C8_14  and  S1_15
    4  A    between atoms: S1_15  and  C9_16
    5  A    between atoms: C9_16  and  C10_17
    6  A    between atoms: C10_17  and  C11_18
    7  A    between atoms: C11_18  and  C12_20
                            x       y       z     vdW  Elec       q    Type
                         _______ _______ _______ _____ _____    ______ ____

>  <TORSDO>
F 7

$$$$
./data/cofactor_redock/pdb/l1c0.pdb
 OpenBabel11272014163D

 26 28  0  0  1  0  0  0  0  0999 V2000
   -1.9600   39.3180   -2.1520 C   0  0  2  0  0  3  0  0  0  0  0  0
   -2.4160   40.5930   -2.5600 O   0  0  0  0  0  0  0  0  0  0  0  0
   -2.4500   41.4330   -1.4260 C   0  0  1  0  0  3  0  0  0  0  0  0
   -1.5660   40.8170   -0.3460 C   0  0  1  0  0  3  0  0  0  0  0  0
   -2.0380   41.1300    0.9390 O   0  0  0  0  0  1  0  0  0  0  0  0
   -1.6620   39.3410   -0.6490 C   0  0  1  0  0  3  0  0  0  0  0  0
   -2.6850   38.7090    0.0870 O   0  0  0  0  0  1  0  0  0  0  0  0
    2.4590   38.2470   -6.2010 N   0  0  0  0  0  1  0  0  0  0  0  0
    1.2610   38.8970   -5.7790 C   0  0  0  0  0  0  0  0  0  0  0  0
    0.5950   39.7440   -6.6210 N   0  0  0  0  0  0  0  0  0  0  0  0
   -0.5640   40.3680   -6.2370 C   0  0  0  0  0  3  0  0  0  0  0  0
   -1.0860   40.1560   -4.9910 N   0  0  0  0  0  0  0  0  0  0  0  0
   -0.4170   39.3240   -4.1520 C   0  0  0  0  0  0  0  0  0  0  0  0
    0.7230   38.6920   -4.5130 C   0  0  0  0  0  0  0  0  0  0  0  0
    1.1540   37.8890   -3.5240 N   0  0  0  0  0  0  0  0  0  0  0  0
    0.2160   38.0750   -2.5550 C   0  0  0  0  0  3  0  0  0  0  0  0
   -0.7540   38.9600   -2.9050 N   0  0  0  0  0  0  0  0  0  0  0  0
   -2.0030   42.8450   -1.8240 C   0  0  0  0  0  2  0  0  0  0  0  0
   -3.4300   43.8560   -2.3730 S   0  0  0  0  0  0  0  0  0  0  0  0
   -2.4760   45.2580   -3.0640 C   0  0  0  0  0  2  0  0  0  0  0  0
   -3.0950   45.7890   -4.3680 C   0  0  0  0  0  2  0  0  0  0  0  0
   -2.4150   47.0770   -4.8910 C   0  0  2  0  0  3  0  0  0  0  0  0
   -1.6370   47.7220   -3.8310 N   0  0  0  0  0  1  0  0  0  0  0  0
   -3.4220   48.0510   -5.4360 C   0  0  0  0  0  0  0  0  0  0  0  0
   -3.7340   49.0810   -4.7810 O   0  0  0  0  0  1  0  0  0  0  0  0
   -4.0240   47.8110   -6.6650 O   0  0  0  0  0  0  0  0  0  0  0  0
  1 17  1  6  0  0  0
  1  6  1  0  0  0  0
  2  1  1  0  0  0  0
  2  3  1  0  0  0  0
  3 18  1  6  0  0  0
  3  4  1  0  0  0  0
  4  5  1  1  0  0  0
  6  4  1  0  0  0  0
  6  7  1  1  0  0  0
  8  9  1  0  0  0  0
  9 14  1  0  0  0  0
 10 11  1  0  0  0  0
 10  9  2  0  0  0  0
 11 12  2  0  0  0  0
 12 13  1  0  0  0  0
 13 17  1  0  0  0  0
 14 13  2  0  0  0  0
 14 15  1  0  0  0  0
 15 16  2  0  0  0  0
 17 16  1  0  0  0  0
 19 18  1  0  0  0  0
 20 19  1  0  0  0  0
 21 20  1  0  0  0  0
 22 21  1  0  0  0  0
 22 23  1  1  0  0  0
 24 22  1  0  0  0  0
 24 25  1  0  0  0  0
 26 24  2  0  0  0  0
M  END
>  <MODEL>
6

>  <REMARK>
 VINA RESULT:      -6.7      4.109      6.108
  Name = ./data/cofactor_redock/pdb/l1c0.pdb
  7 active torsions:
  status: ('A' for Active; 'I' for Inactive)
    1  A    between atoms: N5_10  and  C6_11
    2  A    between atoms: C7_13  and  C8_14
    3  A    between atoms: C8_14  and  S1_15
    4  A    between atoms: S1_15  and  C9_16
    5  A    between atoms: C9_16  and  C10_17
    6  A    between atoms: C10_17  and  C11_18
    7  A    between atoms: C11_18  and  C12_20
                            x       y       z     vdW  Elec       q    Type
                         _______ _______ _______ _____ _____    ______ ____

>  <TORSDO>
F 7

$$$$
./data/cofactor_redock/pdb/l1c0.pdb
 OpenBabel11272014163D

 26 28  0  0  1  0  0  0  0  0999 V2000
   -1.5270   41.5210   -2.3570 C   0  0  2  0  0  3  0  0  0  0  0  0
   -2.1070   40.2570   -2.6200 O   0  0  0  0  0  0  0  0  0  0  0  0
   -2.6870   39.7820   -1.4250 C   0  0  1  0  0  3  0  0  0  0  0  0
   -2.8820   40.9640   -0.4810 C   0  0  1  0  0  3  0  0  0  0  0  0
   -2.7810   40.5670    0.8620 O   0  0  0  0  0  1  0  0  0  0  0  0
   -1.7650   41.8950   -0.8900 C   0  0  1  0  0  3  0  0  0  0  0  0
   -0.6020   41.7050   -0.1170 O   0  0  0  0  0  1  0  0  0  0  0  0
   -3.4930   46.4760   -5.3000 N   0  0  0  0  0  1  0  0  0  0  0  0
   -2.6260   45.8100   -4.3820 C   0  0  0  0  0  0  0  0  0  0  0  0
   -1.6990   46.5150   -3.6650 N   0  0  0  0  0  0  0  0  0  0  0  0
   -0.8670   45.8950   -2.7690 C   0  0  0  0  0  3  0  0  0  0  0  0
   -0.9450   44.5440   -2.5700 N   0  0  0  0  0  0  0  0  0  0  0  0
   -1.8570   43.8450   -3.2910 C   0  0  0  0  0  0  0  0  0  0  0  0
   -2.6940   44.4370   -4.1740 C   0  0  0  0  0  0  0  0  0  0  0  0
   -3.5310   43.5330   -4.7140 N   0  0  0  0  0  0  0  0  0  0  0  0
   -3.1520   42.3730   -4.1110 C   0  0  0  0  0  3  0  0  0  0  0  0
   -2.1170   42.5290   -3.2420 N   0  0  0  0  0  0  0  0  0  0  0  0
   -4.0010   39.0590   -1.7480 C   0  0  0  0  0  2  0  0  0  0  0  0
   -5.4390   40.1740   -1.5180 S   0  0  0  0  0  0  0  0  0  0  0  0
   -6.2650   39.2240   -0.1880 C   0  0  0  0  0  2  0  0  0  0  0  0
   -7.2350   40.0970    0.6260 C   0  0  0  0  0  2  0  0  0  0  0  0
   -7.0410   41.6140    0.3900 C   0  0  2  0  0  3  0  0  0  0  0  0
   -5.7560   42.0650    0.9290 N   0  0  0  0  0  1  0  0  0  0  0  0
   -8.1520   42.4160    1.0090 C   0  0  0  0  0  0  0  0  0  0  0  0
   -8.4140   42.3020    2.2360 O   0  0  0  0  0  1  0  0  0  0  0  0
   -8.9040   43.2800    0.2240 O   0  0  0  0  0  0  0  0  0  0  0  0
  1 17  1  6  0  0  0
  1  6  1  0  0  0  0
  2  1  1  0  0  0  0
  2  3  1  0  0  0  0
  3 18  1  6  0  0  0
  3  4  1  0  0  0  0
  4  5  1  1  0  0  0
  6  4  1  0  0  0  0
  6  7  1  1  0  0  0
  8  9  1  0  0  0  0
  9 14  2  0  0  0  0
  9 10  1  0  0  0  0
 10 11  2  0  0  0  0
 11 12  1  0  0  0  0
 13 17  1  0  0  0  0
 13 12  2  0  0  0  0
 14 13  1  0  0  0  0
 15 14  1  0  0  0  0
 15 16  2  0  0  0  0
 16 17  1  0  0  0  0
 18 19  1  0  0  0  0
 19 20  1  0  0  0  0
 20 21  1  0  0  0  0
 22 21  1  0  0  0  0
 22 23  1  1  0  0  0
 22 24  1  0  0  0  0
 24 25  1  0  0  0  0
 26 24  2  0  0  0  0
M  END
>  <MODEL>
7

>  <REMARK>
 VINA RESULT:      -6.6      3.628      7.513
  Name = ./data/cofactor_redock/pdb/l1c0.pdb
  7 active torsions:
  status: ('A' for Active; 'I' for Inactive)
    1  A    between atoms: N5_10  and  C6_11
    2  A    between atoms: C7_13  and  C8_14
    3  A    between atoms: C8_14  and  S1_15
    4  A    between atoms: S1_15  and  C9_16
    5  A    between atoms: C9_16  and  C10_17
    6  A    between atoms: C10_17  and  C11_18
    7  A    between atoms: C11_18  and  C12_20
                            x       y       z     vdW  Elec       q    Type
                         _______ _______ _______ _____ _____    ______ ____

>  <TORSDO>
F 7

$$$$
./data/cofactor_redock/pdb/l1c0.pdb
 OpenBabel11272014163D

 26 28  0  0  1  0  0  0  0  0999 V2000
   -2.1280   38.6110   -1.9900 C   0  0  2  0  0  3  0  0  0  0  0  0
   -2.9560   39.7580   -1.9680 O   0  0  0  0  0  0  0  0  0  0  0  0
   -2.7780   40.4060   -0.7270 C   0  0  1  0  0  3  0  0  0  0  0  0
   -1.4690   39.9170   -0.1130 C   0  0  1  0  0  3  0  0  0  0  0  0
   -1.5300   39.9250    1.2890 O   0  0  0  0  0  1  0  0  0  0  0  0
   -1.3470   38.5210   -0.6750 C   0  0  1  0  0  3  0  0  0  0  0  0
   -1.9000   37.5490    0.1850 O   0  0  0  0  0  1  0  0  0  0  0  0
    2.2890   38.0940   -6.1490 N   0  0  0  0  0  1  0  0  0  0  0  0
    1.5280   37.6060   -5.0440 C   0  0  0  0  0  0  0  0  0  0  0  0
    1.8420   36.4120   -4.4560 N   0  0  0  0  0  0  0  0  0  0  0  0
    1.1310   35.9330   -3.3870 C   0  0  0  0  0  3  0  0  0  0  0  0
    0.0800   36.6460   -2.8780 N   0  0  0  0  0  0  0  0  0  0  0  0
   -0.2370   37.8250   -3.4690 C   0  0  0  0  0  0  0  0  0  0  0  0
    0.4570   38.3200   -4.5200 C   0  0  0  0  0  0  0  0  0  0  0  0
   -0.0260   39.5220   -4.8830 N   0  0  0  0  0  0  0  0  0  0  0  0
   -1.0420   39.7190   -3.9980 C   0  0  0  0  0  3  0  0  0  0  0  0
   -1.2060   38.6890   -3.1260 N   0  0  0  0  0  0  0  0  0  0  0  0
   -2.8030   41.9250   -0.9360 C   0  0  0  0  0  2  0  0  0  0  0  0
   -4.4220   42.4700   -1.6020 S   0  0  0  0  0  0  0  0  0  0  0  0
   -3.7880   43.3560   -3.0740 C   0  0  0  0  0  2  0  0  0  0  0  0
   -3.2540   44.7530   -2.7190 C   0  0  0  0  0  2  0  0  0  0  0  0
   -2.0120   45.1640   -3.5450 C   0  0  2  0  0  3  0  0  0  0  0  0
   -0.8210   45.2320   -2.6960 N   0  0  0  0  0  1  0  0  0  0  0  0
   -2.2150   46.4890   -4.2270 C   0  0  0  0  0  0  0  0  0  0  0  0
   -1.5430   47.4960   -3.8800 O   0  0  0  0  0  1  0  0  0  0  0  0
   -3.1590   46.6110   -5.2390 O   0  0  0  0  0  0  0  0  0  0  0  0
  1 17  1  6  0  0  0
  1  2  1  0  0  0  0
  1  6  1  0  0  0  0
  2  3  1  0  0  0  0
  3 18  1  6  0  0  0
  3  4  1  0  0  0  0
  4  5  1  1  0  0  0
  6  4  1  0  0  0  0
  6  7  1  1  0  0  0
  8  9  1  0  0  0  0
  9 14  2  0  0  0  0
  9 10  1  0  0  0  0
 10 11  2  0  0  0  0
 11 12  1  0  0  0  0
 13 17  1  0  0  0  0
 13 12  2  0  0  0  0
 14 13  1  0  0  0  0
 15 14  1  0  0  0  0
 15 16  2  0  0  0  0
 16 17  1  0  0  0  0
 19 18  1  0  0  0  0
 20 21  1  0  0  0  0
 20 19  1  0  0  0  0
 22 21  1  0  0  0  0
 22 23  1  1  0  0  0
 24 25  1  0  0  0  0
 24 22  1  0  0  0  0
 26 24  2  0  0  0  0
M  END
>  <MODEL>
8

>  <REMARK>
 VINA RESULT:      -6.5      4.560      6.572
  Name = ./data/cofactor_redock/pdb/l1c0.pdb
  7 active torsions:
  status: ('A' for Active; 'I' for Inactive)
    1  A    between atoms: N5_10  and  C6_11
    2  A    between atoms: C7_13  and  C8_14
    3  A    between atoms: C8_14  and  S1_15
    4  A    between atoms: S1_15  and  C9_16
    5  A    between atoms: C9_16  and  C10_17
    6  A    between atoms: C10_17  and  C11_18
    7  A    between atoms: C11_18  and  C12_20
                            x       y       z     vdW  Elec       q    Type
                         _______ _______ _______ _____ _____    ______ ____

>  <TORSDO>
F 7

$$$$
./data/cofactor_redock/pdb/l1c0.pdb
 OpenBabel11272014163D

 26 28  0  0  1  0  0  0  0  0999 V2000
   -2.3970   40.8720   -2.1590 C   0  0  2  0  0  3  0  0  0  0  0  0
   -3.4650   41.4150   -2.9100 O   0  0  0  0  0  0  0  0  0  0  0  0
   -3.3420   42.8200   -2.9000 C   0  0  1  0  0  3  0  0  0  0  0  0
   -1.9100   43.1750   -2.5120 C   0  0  1  0  0  3  0  0  0  0  0  0
   -1.8550   44.3990   -1.8270 O   0  0  0  0  0  1  0  0  0  0  0  0
   -1.5110   42.0090   -1.6390 C   0  0  1  0  0  3  0  0  0  0  0  0
   -1.7470   42.2600   -0.2720 O   0  0  0  0  0  1  0  0  0  0  0  0
    1.1760   36.6070   -4.6330 N   0  0  0  0  0  1  0  0  0  0  0  0
    0.4080   37.1450   -3.5570 C   0  0  0  0  0  0  0  0  0  0  0  0
    0.3640   36.5110   -2.3470 N   0  0  0  0  0  0  0  0  0  0  0  0
   -0.3580   37.0190   -1.2990 C   0  0  0  0  0  3  0  0  0  0  0  0
   -1.0590   38.1850   -1.4410 N   0  0  0  0  0  0  0  0  0  0  0  0
   -1.0240   38.8080   -2.6460 C   0  0  0  0  0  0  0  0  0  0  0  0
   -0.3120   38.3280   -3.6910 C   0  0  0  0  0  0  0  0  0  0  0  0
   -0.4020   39.1560   -4.7470 N   0  0  0  0  0  0  0  0  0  0  0  0
   -1.2050   40.1520   -4.2810 C   0  0  0  0  0  3  0  0  0  0  0  0
   -1.6150   39.9600   -2.9990 N   0  0  0  0  0  0  0  0  0  0  0  0
   -3.7410   43.3780   -4.2720 C   0  0  0  0  0  2  0  0  0  0  0  0
   -2.2680   43.6100   -5.3400 S   0  0  0  0  0  0  0  0  0  0  0  0
   -2.6200   45.3310   -5.8590 C   0  0  0  0  0  2  0  0  0  0  0  0
   -3.1750   46.1790   -4.7030 C   0  0  0  0  0  2  0  0  0  0  0  0
   -3.5620   47.6160   -5.1260 C   0  0  2  0  0  3  0  0  0  0  0  0
   -3.8890   47.6680   -6.5530 N   0  0  0  0  0  1  0  0  0  0  0  0
   -2.4610   48.5950   -4.8310 C   0  0  0  0  0  0  0  0  0  0  0  0
   -1.6520   48.3810   -3.8890 O   0  0  0  0  0  1  0  0  0  0  0  0
   -2.3380   49.7510   -5.5910 O   0  0  0  0  0  0  0  0  0  0  0  0
  1 17  1  6  0  0  0
  1  6  1  0  0  0  0
  2  3  1  0  0  0  0
  2  1  1  0  0  0  0
  3 18  1  6  0  0  0
  3  4  1  0  0  0  0
  4  5  1  1  0  0  0
  4  6  1  0  0  0  0
  6  7  1  1  0  0  0
  8  9  1  0  0  0  0
  9 10  1  0  0  0  0
 10 11  2  0  0  0  0
 12 11  1  0  0  0  0
 13 12  2  0  0  0  0
 14  9  2  0  0  0  0
 14 13  1  0  0  0  0
 15 16  2  0  0  0  0
 15 14  1  0  0  0  0
 16 17  1  0  0  0  0
 17 13  1  0  0  0  0
 19 18  1  0  0  0  0
 20 19  1  0  0  0  0
 20 21  1  0  0  0  0
 22 23  1  6  0  0  0
 22 24  1  0  0  0  0
 22 21  1  0  0  0  0
 24 25  1  0  0  0  0
 26 24  2  0  0  0  0
M  END
>  <MODEL>
9

>  <REMARK>
 VINA RESULT:      -6.4      3.692      5.144
  Name = ./data/cofactor_redock/pdb/l1c0.pdb
  7 active torsions:
  status: ('A' for Active; 'I' for Inactive)
    1  A    between atoms: N5_10  and  C6_11
    2  A    between atoms: C7_13  and  C8_14
    3  A    between atoms: C8_14  and  S1_15
    4  A    between atoms: S1_15  and  C9_16
    5  A    between atoms: C9_16  and  C10_17
    6  A    between atoms: C10_17  and  C11_18
    7  A    between atoms: C11_18  and  C12_20
                            x       y       z     vdW  Elec       q    Type
                         _______ _______ _______ _____ _____    ______ ____

>  <TORSDO>
F 7

$$$$
