./data/cofactor_redock/pdb/l0c0.pdb
 OpenBabel11272014163D

 27 29  0  0  1  0  0  0  0  0999 V2000
   -3.3920   42.6520   -3.4590 C   0  0  1  0  0  3  0  0  0  0  0  0
   -3.8000   43.9360   -3.8830 O   0  0  0  0  0  0  0  0  0  0  0  0
   -2.8410   44.4290   -4.7950 C   0  0  2  0  0  3  0  0  0  0  0  0
   -1.7400   43.3830   -4.9960 C   0  0  2  0  0  3  0  0  0  0  0  0
   -1.8960   42.7050   -6.2230 O   0  0  0  0  0  1  0  0  0  0  0  0
   -1.9170   42.4670   -3.8100 C   0  0  2  0  0  3  0  0  0  0  0  0
   -1.6240   41.1300   -4.1340 O   0  0  0  0  0  1  0  0  0  0  0  0
   -2.2780   45.6820   -4.2820 N   0  0  0  0  0  0  0  0  0  0  0  0
   -1.1720   45.8540   -3.5120 C   0  0  0  0  0  3  0  0  0  0  0  0
   -0.8770   47.1620   -3.2740 N   0  0  0  0  0  0  0  0  0  0  0  0
   -1.8490   47.8110   -3.9430 C   0  0  0  0  0  0  0  0  0  0  0  0
   -2.0580   49.1780   -4.0910 C   0  0  0  0  0  0  0  0  0  0  0  0
   -1.1970   50.1360   -3.4690 N   0  0  0  0  0  1  0  0  0  0  0  0
   -3.1170   49.5790   -4.8600 N   0  0  0  0  0  0  0  0  0  0  0  0
   -3.9440   48.6640   -5.4660 C   0  0  0  0  0  3  0  0  0  0  0  0
   -3.7260   47.3220   -5.3150 N   0  0  0  0  0  0  0  0  0  0  0  0
   -2.6790   46.9320   -4.5490 C   0  0  0  0  0  0  0  0  0  0  0  0
   -3.6340   42.4930   -1.9540 C   0  0  0  0  0  2  0  0  0  0  0  0
   -1.9640   40.9290   -0.1320 C   0  0  0  0  0  1  0  0  0  0  0  0
   -3.1910   40.8480   -1.4160 S   0  0  1  0  0  3  0  0  0  0  0  0
   -4.6140   39.9220   -0.8520 C   0  0  0  0  0  2  0  0  0  0  0  0
   -5.9220   40.7290   -0.9290 C   0  0  0  0  0  2  0  0  0  0  0  0
   -6.8160   40.6240    0.3280 C   0  0  2  0  0  3  0  0  0  0  0  0
   -7.9930   39.8050    0.0260 N   0  0  0  0  0  1  0  0  0  0  0  0
   -7.2340   41.9780    0.8400 C   0  0  0  0  0  0  0  0  0  0  0  0
   -6.6070   43.0170    0.4960 O   0  0  0  0  0  0  0  0  0  0  0  0
   -8.3370   42.0890    1.6780 O   0  0  0  0  0  1  0  0  0  0  0  0
  1 18  1  1  0  0  0
  2  1  1  0  0  0  0
  3  8  1  1  0  0  0
  3  2  1  0  0  0  0
  4  5  1  6  0  0  0
  4  3  1  0  0  0  0
  4  6  1  0  0  0  0
  6  7  1  6  0  0  0
  6  1  1  0  0  0  0
  8  9  1  0  0  0  0
  9 10  2  0  0  0  0
 11 10  1  0  0  0  0
 12 11  1  0  0  0  0
 12 13  1  0  0  0  0
 14 12  2  0  0  0  0
 15 16  2  0  0  0  0
 15 14  1  0  0  0  0
 16 17  1  0  0  0  0
 17  8  1  0  0  0  0
 17 11  2  0  0  0  0
 18 20  1  0  0  0  0
 20 21  1  0  0  0  0
 20 19  1  1  0  0  0
 22 21  1  0  0  0  0
 22 23  1  0  0  0  0
 23 24  1  6  0  0  0
 23 25  1  0  0  0  0
 25 27  1  0  0  0  0
 26 25  2  0  0  0  0
M  END
>  <MODEL>
1

>  <REMARK>
 VINA RESULT:      -8.9      0.000      0.000
  Name = ./data/cofactor_redock/pdb/l0c0.pdb
  7 active torsions:
  status: ('A' for Active; 'I' for Inactive)
    1  A    between atoms: S1_2  and  C2_3
    2  A    between atoms: S1_2  and  C6_10
    3  A    between atoms: C2_3  and  C3_4
    4  A    between atoms: C3_4  and  C4_5
    5  A    between atoms: C4_5  and  C5_7
    6  A    between atoms: C6_10  and  C7_11
    7  A    between atoms: C8_13  and  N2_14
                            x       y       z     vdW  Elec       q    Type
                         _______ _______ _______ _____ _____    ______ ____

>  <TORSDO>
F 7

$$$$
./data/cofactor_redock/pdb/l0c0.pdb
 OpenBabel11272014163D

 27 29  0  0  1  0  0  0  0  0999 V2000
   -2.8710   42.9360   -2.4470 C   0  0  1  0  0  3  0  0  0  0  0  0
   -3.7360   42.8270   -1.3360 O   0  0  0  0  0  0  0  0  0  0  0  0
   -3.4580   41.6120   -0.6730 C   0  0  2  0  0  3  0  0  0  0  0  0
   -2.3140   40.8870   -1.3900 C   0  0  2  0  0  3  0  0  0  0  0  0
   -1.0990   41.0270   -0.6880 O   0  0  0  0  0  1  0  0  0  0  0  0
   -2.2750   41.5620   -2.7410 C   0  0  2  0  0  3  0  0  0  0  0  0
   -0.9640   41.6590   -3.2380 O   0  0  0  0  0  1  0  0  0  0  0  0
   -4.6650   40.7800   -0.6500 N   0  0  0  0  0  0  0  0  0  0  0  0
   -4.8150   39.5030   -1.0900 C   0  0  0  0  0  3  0  0  0  0  0  0
   -6.0530   38.9900   -0.8470 N   0  0  0  0  0  0  0  0  0  0  0  0
   -6.6770   40.0060   -0.2210 C   0  0  0  0  0  0  0  0  0  0  0  0
   -7.9660   40.0650    0.2970 C   0  0  0  0  0  0  0  0  0  0  0  0
   -8.8660   38.9580    0.1880 N   0  0  0  0  0  1  0  0  0  0  0  0
   -8.3470   41.2220    0.9230 N   0  0  0  0  0  0  0  0  0  0  0  0
   -7.4850   42.2860    1.0370 C   0  0  0  0  0  3  0  0  0  0  0  0
   -6.2180   42.2140    0.5260 N   0  0  0  0  0  0  0  0  0  0  0  0
   -5.8500   41.0680   -0.0960 C   0  0  0  0  0  0  0  0  0  0  0  0
   -3.6350   43.4860   -3.6560 C   0  0  0  0  0  2  0  0  0  0  0  0
   -2.2050   43.5580   -6.2070 C   0  0  0  0  0  1  0  0  0  0  0  0
   -2.5490   44.4430   -4.7040 S   0  0  1  0  0  3  0  0  0  0  0  0
   -3.2270   46.0550   -5.0790 C   0  0  0  0  0  2  0  0  0  0  0  0
   -2.5500   47.1870   -4.2860 C   0  0  0  0  0  2  0  0  0  0  0  0
   -3.0430   48.6070   -4.6480 C   0  0  2  0  0  3  0  0  0  0  0  0
   -3.3500   48.6700   -6.0790 N   0  0  0  0  0  1  0  0  0  0  0  0
   -2.0370   49.6670   -4.2780 C   0  0  0  0  0  0  0  0  0  0  0  0
   -1.1900   49.4590   -3.3670 O   0  0  0  0  0  1  0  0  0  0  0  0
   -2.0230   50.8750   -4.9640 O   0  0  0  0  0  0  0  0  0  0  0  0
  1 18  1  6  0  0  0
  1  2  1  0  0  0  0
  2  3  1  0  0  0  0
  3  8  1  6  0  0  0
  4  5  1  1  0  0  0
  4  3  1  0  0  0  0
  6  7  1  1  0  0  0
  6  1  1  0  0  0  0
  6  4  1  0  0  0  0
  8 17  1  0  0  0  0
  9 10  2  0  0  0  0
  9  8  1  0  0  0  0
 10 11  1  0  0  0  0
 11 17  2  0  0  0  0
 11 12  1  0  0  0  0
 12 14  2  0  0  0  0
 13 12  1  0  0  0  0
 14 15  1  0  0  0  0
 16 15  2  0  0  0  0
 17 16  1  0  0  0  0
 20 19  1  6  0  0  0
 20 18  1  0  0  0  0
 21 20  1  0  0  0  0
 21 22  1  0  0  0  0
 23 24  1  6  0  0  0
 23 22  1  0  0  0  0
 23 25  1  0  0  0  0
 25 26  1  0  0  0  0
 27 25  2  0  0  0  0
M  END
>  <MODEL>
2

>  <REMARK>
 VINA RESULT:      -8.6      2.624      8.335
  Name = ./data/cofactor_redock/pdb/l0c0.pdb
  7 active torsions:
  status: ('A' for Active; 'I' for Inactive)
    1  A    between atoms: S1_2  and  C2_3
    2  A    between atoms: S1_2  and  C6_10
    3  A    between atoms: C2_3  and  C3_4
    4  A    between atoms: C3_4  and  C4_5
    5  A    between atoms: C4_5  and  C5_7
    6  A    between atoms: C6_10  and  C7_11
    7  A    between atoms: C8_13  and  N2_14
                            x       y       z     vdW  Elec       q    Type
                         _______ _______ _______ _____ _____    ______ ____

>  <TORSDO>
F 7

$$$$
./data/cofactor_redock/pdb/l0c0.pdb
 OpenBabel11272014163D

 27 29  0  0  1  0  0  0  0  0999 V2000
   -1.9840   41.7430   -2.9610 C   0  0  1  0  0  3  0  0  0  0  0  0
   -2.8310   42.0040   -1.8620 O   0  0  0  0  0  0  0  0  0  0  0  0
   -2.7560   40.9090   -0.9730 C   0  0  2  0  0  3  0  0  0  0  0  0
   -1.7730   39.8700   -1.5210 C   0  0  2  0  0  3  0  0  0  0  0  0
   -0.5370   39.9260   -0.8430 O   0  0  0  0  0  1  0  0  0  0  0  0
   -1.6440   40.2540   -2.9760 C   0  0  2  0  0  3  0  0  0  0  0  0
   -0.3470   40.0220   -3.4650 O   0  0  0  0  0  1  0  0  0  0  0  0
   -4.0900   40.3230   -0.8060 N   0  0  0  0  0  0  0  0  0  0  0  0
   -4.4700   39.0310   -0.9920 C   0  0  0  0  0  3  0  0  0  0  0  0
   -5.7740   38.8010   -0.6720 N   0  0  0  0  0  0  0  0  0  0  0  0
   -6.1980   40.0130   -0.2630 C   0  0  0  0  0  0  0  0  0  0  0  0
   -7.4450   40.3960    0.2150 C   0  0  0  0  0  0  0  0  0  0  0  0
   -8.5270   39.4650    0.3100 N   0  0  0  0  0  1  0  0  0  0  0  0
   -7.6040   41.7010    0.5990 N   0  0  0  0  0  0  0  0  0  0  0  0
   -6.5670   42.5990    0.5170 C   0  0  0  0  0  3  0  0  0  0  0  0
   -5.3430   42.2070    0.0480 N   0  0  0  0  0  0  0  0  0  0  0  0
   -5.1940   40.9160   -0.3350 C   0  0  0  0  0  0  0  0  0  0  0  0
   -2.6650   42.1750   -4.2640 C   0  0  0  0  0  2  0  0  0  0  0  0
   -1.9920   43.8460   -6.5700 C   0  0  0  0  0  1  0  0  0  0  0  0
   -2.0530   43.7680   -4.7940 S   0  0  1  0  0  3  0  0  0  0  0  0
   -3.0410   45.1130   -4.1520 C   0  0  0  0  0  2  0  0  0  0  0  0
   -2.4420   45.7410   -2.8800 C   0  0  0  0  0  2  0  0  0  0  0  0
   -1.0220   45.2430   -2.5270 C   0  0  2  0  0  3  0  0  0  0  0  0
   -1.0140   44.7140   -1.1610 N   0  0  0  0  0  1  0  0  0  0  0  0
    0.0120   46.3300   -2.6770 C   0  0  0  0  0  0  0  0  0  0  0  0
   -0.1940   47.3110   -3.4410 O   0  0  0  0  0  0  0  0  0  0  0  0
    1.1920   46.2650   -1.9470 O   0  0  0  0  0  1  0  0  0  0  0  0
  1 18  1  6  0  0  0
  1  2  1  0  0  0  0
  2  3  1  0  0  0  0
  3  8  1  6  0  0  0
  4  3  1  0  0  0  0
  4  5  1  1  0  0  0
  6  7  1  1  0  0  0
  6  1  1  0  0  0  0
  6  4  1  0  0  0  0
  8 17  1  0  0  0  0
  9  8  1  0  0  0  0
  9 10  2  0  0  0  0
 10 11  1  0  0  0  0
 11 12  1  0  0  0  0
 12 13  1  0  0  0  0
 12 14  2  0  0  0  0
 15 14  1  0  0  0  0
 16 15  2  0  0  0  0
 17 11  2  0  0  0  0
 17 16  1  0  0  0  0
 20 19  1  6  0  0  0
 20 18  1  0  0  0  0
 20 21  1  0  0  0  0
 21 22  1  0  0  0  0
 22 23  1  0  0  0  0
 23 24  1  1  0  0  0
 25 23  1  0  0  0  0
 25 27  1  0  0  0  0
 26 25  2  0  0  0  0
M  END
>  <MODEL>
3

>  <REMARK>
 VINA RESULT:      -8.4      3.330      7.710
  Name = ./data/cofactor_redock/pdb/l0c0.pdb
  7 active torsions:
  status: ('A' for Active; 'I' for Inactive)
    1  A    between atoms: S1_2  and  C2_3
    2  A    between atoms: S1_2  and  C6_10
    3  A    between atoms: C2_3  and  C3_4
    4  A    between atoms: C3_4  and  C4_5
    5  A    between atoms: C4_5  and  C5_7
    6  A    between atoms: C6_10  and  C7_11
    7  A    between atoms: C8_13  and  N2_14
                            x       y       z     vdW  Elec       q    Type
                         _______ _______ _______ _____ _____    ______ ____

>  <TORSDO>
F 7

$$$$
./data/cofactor_redock/pdb/l0c0.pdb
 OpenBabel11272014163D

 27 29  0  0  1  0  0  0  0  0999 V2000
   -2.1710   43.7200   -3.0440 C   0  0  1  0  0  3  0  0  0  0  0  0
   -2.1500   43.0650   -1.7920 O   0  0  0  0  0  0  0  0  0  0  0  0
   -2.0220   41.6770   -2.0170 C   0  0  2  0  0  3  0  0  0  0  0  0
   -1.9290   41.4090   -3.5230 C   0  0  2  0  0  3  0  0  0  0  0  0
   -0.6020   41.1400   -3.9150 O   0  0  0  0  0  1  0  0  0  0  0  0
   -2.4560   42.6870   -4.1310 C   0  0  2  0  0  3  0  0  0  0  0  0
   -1.7990   43.0030   -5.3330 O   0  0  0  0  0  1  0  0  0  0  0  0
   -3.1730   40.9790   -1.4360 N   0  0  0  0  0  0  0  0  0  0  0  0
   -4.3860   41.4920   -1.1000 C   0  0  0  0  0  3  0  0  0  0  0  0
   -5.2650   40.5520   -0.6550 N   0  0  0  0  0  0  0  0  0  0  0  0
   -4.5490   39.4140   -0.7380 C   0  0  0  0  0  0  0  0  0  0  0  0
   -4.9290   38.1090   -0.4440 C   0  0  0  0  0  0  0  0  0  0  0  0
   -6.2360   37.8060    0.0520 N   0  0  0  0  0  1  0  0  0  0  0  0
   -4.0070   37.1180   -0.6490 N   0  0  0  0  0  0  0  0  0  0  0  0
   -2.7520   37.4020   -1.1310 C   0  0  0  0  0  3  0  0  0  0  0  0
   -2.3920   38.6900   -1.4200 N   0  0  0  0  0  0  0  0  0  0  0  0
   -3.3070   39.6660   -1.2100 C   0  0  0  0  0  0  0  0  0  0  0  0
   -3.2240   44.8340   -3.0380 C   0  0  0  0  0  2  0  0  0  0  0  0
   -0.7470   46.3240   -3.4850 C   0  0  0  0  0  1  0  0  0  0  0  0
   -2.5190   46.3670   -3.6240 S   0  0  1  0  0  3  0  0  0  0  0  0
   -2.9970   46.7220   -5.3110 C   0  0  0  0  0  2  0  0  0  0  0  0
   -2.9720   48.2270   -5.6360 C   0  0  0  0  0  2  0  0  0  0  0  0
   -3.1570   49.1500   -4.4100 C   0  0  2  0  0  3  0  0  0  0  0  0
   -4.4910   49.7560   -4.4500 N   0  0  0  0  0  1  0  0  0  0  0  0
   -2.0960   50.2190   -4.3410 C   0  0  0  0  0  0  0  0  0  0  0  0
   -1.9700   51.0600   -5.2720 O   0  0  0  0  0  0  0  0  0  0  0  0
   -1.2650   50.2960   -3.2300 O   0  0  0  0  0  1  0  0  0  0  0  0
  1 18  1  1  0  0  0
  1  2  1  0  0  0  0
  3  2  1  0  0  0  0
  3  8  1  6  0  0  0
  4  5  1  6  0  0  0
  4  3  1  0  0  0  0
  6  7  1  6  0  0  0
  6  4  1  0  0  0  0
  6  1  1  0  0  0  0
  8 17  1  0  0  0  0
  8  9  1  0  0  0  0
  9 10  2  0  0  0  0
 11 10  1  0  0  0  0
 11 12  1  0  0  0  0
 12 13  1  0  0  0  0
 14 12  2  0  0  0  0
 15 14  1  0  0  0  0
 16 17  1  0  0  0  0
 16 15  2  0  0  0  0
 17 11  2  0  0  0  0
 20 19  1  6  0  0  0
 20 18  1  0  0  0  0
 21 20  1  0  0  0  0
 22 21  1  0  0  0  0
 22 23  1  0  0  0  0
 23 24  1  6  0  0  0
 23 25  1  0  0  0  0
 25 27  1  0  0  0  0
 26 25  2  0  0  0  0
M  END
>  <MODEL>
4

>  <REMARK>
 VINA RESULT:      -7.9      3.248      8.486
  Name = ./data/cofactor_redock/pdb/l0c0.pdb
  7 active torsions:
  status: ('A' for Active; 'I' for Inactive)
    1  A    between atoms: S1_2  and  C2_3
    2  A    between atoms: S1_2  and  C6_10
    3  A    between atoms: C2_3  and  C3_4
    4  A    between atoms: C3_4  and  C4_5
    5  A    between atoms: C4_5  and  C5_7
    6  A    between atoms: C6_10  and  C7_11
    7  A    between atoms: C8_13  and  N2_14
                            x       y       z     vdW  Elec       q    Type
                         _______ _______ _______ _____ _____    ______ ____

>  <TORSDO>
F 7

$$$$
./data/cofactor_redock/pdb/l0c0.pdb
 OpenBabel11272014163D

 27 29  0  0  1  0  0  0  0  0999 V2000
   -1.9840   41.9020   -2.6090 C   0  0  1  0  0  3  0  0  0  0  0  0
   -2.4460   41.6340   -1.3010 O   0  0  0  0  0  0  0  0  0  0  0  0
   -2.3390   40.2460   -1.0670 C   0  0  2  0  0  3  0  0  0  0  0  0
   -1.7440   39.5620   -2.3030 C   0  0  2  0  0  3  0  0  0  0  0  0
   -0.3840   39.2440   -2.1060 O   0  0  0  0  0  1  0  0  0  0  0  0
   -1.9390   40.5910   -3.3910 C   0  0  2  0  0  3  0  0  0  0  0  0
   -0.8840   40.5760   -4.3190 O   0  0  0  0  0  1  0  0  0  0  0  0
   -3.6640   39.6990   -0.7600 N   0  0  0  0  0  0  0  0  0  0  0  0
   -4.8780   40.2820   -0.9420 C   0  0  0  0  0  3  0  0  0  0  0  0
   -5.9220   39.4670   -0.6250 N   0  0  0  0  0  0  0  0  0  0  0  0
   -5.3060   38.3320   -0.2420 C   0  0  0  0  0  0  0  0  0  0  0  0
   -5.8580   37.1240    0.1710 C   0  0  0  0  0  0  0  0  0  0  0  0
   -7.2740   36.9450    0.2690 N   0  0  0  0  0  1  0  0  0  0  0  0
   -4.9970   36.1040    0.4770 N   0  0  0  0  0  0  0  0  0  0  0  0
   -3.6360   36.2680    0.3780 C   0  0  0  0  0  3  0  0  0  0  0  0
   -3.1060   37.4600   -0.0320 N   0  0  0  0  0  0  0  0  0  0  0  0
   -3.9640   38.4660   -0.3290 C   0  0  0  0  0  0  0  0  0  0  0  0
   -2.8970   42.9290   -3.2900 C   0  0  0  0  0  2  0  0  0  0  0  0
   -2.3670   43.7050   -6.0600 C   0  0  0  0  0  1  0  0  0  0  0  0
   -1.9480   44.0020   -4.3580 S   0  0  1  0  0  3  0  0  0  0  0  0
   -2.1860   45.7280   -3.9560 C   0  0  0  0  0  2  0  0  0  0  0  0
   -3.0030   46.4830   -5.0210 C   0  0  0  0  0  2  0  0  0  0  0  0
   -2.6900   47.9930   -5.1180 C   0  0  2  0  0  3  0  0  0  0  0  0
   -1.8450   48.3930   -3.9900 N   0  0  0  0  0  1  0  0  0  0  0  0
   -3.9430   48.8290   -5.1590 C   0  0  0  0  0  0  0  0  0  0  0  0
   -4.9980   48.3810   -5.6850 O   0  0  0  0  0  0  0  0  0  0  0  0
   -3.9470   50.0970   -4.5900 O   0  0  0  0  0  1  0  0  0  0  0  0
  1 18  1  6  0  0  0
  1  2  1  0  0  0  0
  2  3  1  0  0  0  0
  3  8  1  6  0  0  0
  4  5  1  1  0  0  0
  4  3  1  0  0  0  0
  6  7  1  6  0  0  0
  6  1  1  0  0  0  0
  6  4  1  0  0  0  0
  8 17  1  0  0  0  0
  9  8  1  0  0  0  0
  9 10  2  0  0  0  0
 10 11  1  0  0  0  0
 11 12  1  0  0  0  0
 12 13  1  0  0  0  0
 12 14  2  0  0  0  0
 15 14  1  0  0  0  0
 16 15  2  0  0  0  0
 17 11  2  0  0  0  0
 17 16  1  0  0  0  0
 20 19  1  6  0  0  0
 20 21  1  0  0  0  0
 20 18  1  0  0  0  0
 22 21  1  0  0  0  0
 23 22  1  0  0  0  0
 23 24  1  1  0  0  0
 25 23  1  0  0  0  0
 25 27  1  0  0  0  0
 26 25  2  0  0  0  0
M  END
>  <MODEL>
5

>  <REMARK>
 VINA RESULT:      -7.4      2.993      8.869
  Name = ./data/cofactor_redock/pdb/l0c0.pdb
  7 active torsions:
  status: ('A' for Active; 'I' for Inactive)
    1  A    between atoms: S1_2  and  C2_3
    2  A    between atoms: S1_2  and  C6_10
    3  A    between atoms: C2_3  and  C3_4
    4  A    between atoms: C3_4  and  C4_5
    5  A    between atoms: C4_5  and  C5_7
    6  A    between atoms: C6_10  and  C7_11
    7  A    between atoms: C8_13  and  N2_14
                            x       y       z     vdW  Elec       q    Type
                         _______ _______ _______ _____ _____    ______ ____

>  <TORSDO>
F 7

$$$$
./data/cofactor_redock/pdb/l0c0.pdb
 OpenBabel11272014163D

 27 29  0  0  1  0  0  0  0  0999 V2000
   -0.4530   39.5650   -3.6860 C   0  0  1  0  0  3  0  0  0  0  0  0
   -1.3150   40.3110   -2.8520 O   0  0  0  0  0  0  0  0  0  0  0  0
   -1.4220   39.6440   -1.6120 C   0  0  2  0  0  3  0  0  0  0  0  0
   -0.5500   38.3840   -1.6320 C   0  0  2  0  0  3  0  0  0  0  0  0
    0.6470   38.5790   -0.9120 O   0  0  0  0  0  1  0  0  0  0  0  0
   -0.3020   38.1620   -3.1040 C   0  0  2  0  0  3  0  0  0  0  0  0
    0.9780   37.6350   -3.3450 O   0  0  0  0  0  1  0  0  0  0  0  0
   -2.8250   39.2990   -1.3630 N   0  0  0  0  0  0  0  0  0  0  0  0
   -3.3950   38.0660   -1.3260 C   0  0  0  0  0  3  0  0  0  0  0  0
   -4.7140   38.0900   -0.9870 N   0  0  0  0  0  0  0  0  0  0  0  0
   -4.9480   39.4030   -0.7990 C   0  0  0  0  0  0  0  0  0  0  0  0
   -6.1180   40.0440   -0.4100 C   0  0  0  0  0  0  0  0  0  0  0  0
   -7.3240   39.3140   -0.1680 N   0  0  0  0  0  1  0  0  0  0  0  0
   -6.0770   41.4050   -0.2600 N   0  0  0  0  0  0  0  0  0  0  0  0
   -4.9200   42.1110   -0.4830 C   0  0  0  0  0  3  0  0  0  0  0  0
   -3.7740   41.4680   -0.8630 N   0  0  0  0  0  0  0  0  0  0  0  0
   -3.8230   40.1220   -1.0150 C   0  0  0  0  0  0  0  0  0  0  0  0
   -1.0090   39.5240   -5.1140 C   0  0  0  0  0  2  0  0  0  0  0  0
    0.2270   40.1270   -7.6960 C   0  0  0  0  0  1  0  0  0  0  0  0
   -0.2540   40.7930   -6.1190 S   0  0  1  0  0  3  0  0  0  0  0  0
   -1.3360   42.1990   -6.3470 C   0  0  0  0  0  2  0  0  0  0  0  0
   -2.0410   42.6290   -5.0480 C   0  0  0  0  0  2  0  0  0  0  0  0
   -2.7140   44.0190   -5.1130 C   0  0  2  0  0  3  0  0  0  0  0  0
   -2.6900   44.5110   -6.4920 N   0  0  0  0  0  1  0  0  0  0  0  0
   -2.0550   45.0110   -4.1880 C   0  0  0  0  0  0  0  0  0  0  0  0
   -2.2720   46.2470   -4.3130 O   0  0  0  0  0  0  0  0  0  0  0  0
   -1.2210   44.5590   -3.1730 O   0  0  0  0  0  1  0  0  0  0  0  0
  1 18  1  6  0  0  0
  1  6  1  0  0  0  0
  1  2  1  0  0  0  0
  2  3  1  0  0  0  0
  3  8  1  6  0  0  0
  4  3  1  0  0  0  0
  4  5  1  1  0  0  0
  6  7  1  1  0  0  0
  6  4  1  0  0  0  0
  8  9  1  0  0  0  0
  8 17  1  0  0  0  0
  9 10  2  0  0  0  0
 10 11  1  0  0  0  0
 11 12  1  0  0  0  0
 12 14  2  0  0  0  0
 12 13  1  0  0  0  0
 15 14  1  0  0  0  0
 16 15  2  0  0  0  0
 17 16  1  0  0  0  0
 17 11  2  0  0  0  0
 20 19  1  6  0  0  0
 20 18  1  0  0  0  0
 21 20  1  0  0  0  0
 21 22  1  0  0  0  0
 23 24  1  6  0  0  0
 23 22  1  0  0  0  0
 23 25  1  0  0  0  0
 25 27  1  0  0  0  0
 26 25  2  0  0  0  0
M  END
>  <MODEL>
6

>  <REMARK>
 VINA RESULT:      -7.2      3.629      7.748
  Name = ./data/cofactor_redock/pdb/l0c0.pdb
  7 active torsions:
  status: ('A' for Active; 'I' for Inactive)
    1  A    between atoms: S1_2  and  C2_3
    2  A    between atoms: S1_2  and  C6_10
    3  A    between atoms: C2_3  and  C3_4
    4  A    between atoms: C3_4  and  C4_5
    5  A    between atoms: C4_5  and  C5_7
    6  A    between atoms: C6_10  and  C7_11
    7  A    between atoms: C8_13  and  N2_14
                            x       y       z     vdW  Elec       q    Type
                         _______ _______ _______ _____ _____    ______ ____

>  <TORSDO>
F 7

$$$$
./data/cofactor_redock/pdb/l0c0.pdb
 OpenBabel11272014163D

 27 29  0  0  1  0  0  0  0  0999 V2000
    0.0410   37.9770   -4.1990 C   0  0  1  0  0  3  0  0  0  0  0  0
   -1.2110   38.6120   -4.3630 O   0  0  0  0  0  0  0  0  0  0  0  0
   -1.0160   39.7920   -5.1130 C   0  0  2  0  0  3  0  0  0  0  0  0
    0.4650   39.9240   -5.4840 C   0  0  2  0  0  3  0  0  0  0  0  0
    0.6900   39.5680   -6.8300 O   0  0  0  0  0  1  0  0  0  0  0  0
    1.1450   38.9800   -4.5220 C   0  0  2  0  0  3  0  0  0  0  0  0
    2.2610   38.3540   -5.1050 O   0  0  0  0  0  1  0  0  0  0  0  0
   -1.4590   40.9490   -4.3290 N   0  0  0  0  0  0  0  0  0  0  0  0
   -1.5360   41.0690   -2.9770 C   0  0  0  0  0  3  0  0  0  0  0  0
   -1.9140   42.3120   -2.5670 N   0  0  0  0  0  0  0  0  0  0  0  0
   -2.0620   42.9760   -3.7290 C   0  0  0  0  0  0  0  0  0  0  0  0
   -2.4120   44.3030   -3.9480 C   0  0  0  0  0  0  0  0  0  0  0  0
   -2.7070   45.1870   -2.8630 N   0  0  0  0  0  1  0  0  0  0  0  0
   -2.4610   44.7410   -5.2450 N   0  0  0  0  0  0  0  0  0  0  0  0
   -2.1720   43.8990   -6.2920 C   0  0  0  0  0  3  0  0  0  0  0  0
   -1.8260   42.5960   -6.0620 N   0  0  0  0  0  0  0  0  0  0  0  0
   -1.7840   42.1680   -4.7770 C   0  0  0  0  0  0  0  0  0  0  0  0
    0.1730   37.4370   -2.7700 C   0  0  0  0  0  2  0  0  0  0  0  0
   -1.0930   35.1220   -1.5080 C   0  0  0  0  0  1  0  0  0  0  0  0
   -1.3710   36.7270   -2.2210 S   0  0  1  0  0  3  0  0  0  0  0  0
   -2.2170   37.7830   -1.0510 C   0  0  0  0  0  2  0  0  0  0  0  0
   -3.5490   38.3300   -1.5940 C   0  0  0  0  0  2  0  0  0  0  0  0
   -4.6090   38.6300   -0.5080 C   0  0  2  0  0  3  0  0  0  0  0  0
   -5.4510   37.4480   -0.3060 N   0  0  0  0  0  1  0  0  0  0  0  0
   -5.4560   39.8260   -0.8600 C   0  0  0  0  0  0  0  0  0  0  0  0
   -6.6770   39.8640   -0.5450 O   0  0  0  0  0  1  0  0  0  0  0  0
   -4.8830   40.9100   -1.5150 O   0  0  0  0  0  0  0  0  0  0  0  0
  1 18  1  1  0  0  0
  2  1  1  0  0  0  0
  3  2  1  0  0  0  0
  3  8  1  1  0  0  0
  4  5  1  6  0  0  0
  4  3  1  0  0  0  0
  4  6  1  0  0  0  0
  6  7  1  6  0  0  0
  6  1  1  0  0  0  0
  8  9  1  0  0  0  0
  9 10  2  0  0  0  0
 11 10  1  0  0  0  0
 12 11  1  0  0  0  0
 12 13  1  0  0  0  0
 14 12  2  0  0  0  0
 15 16  2  0  0  0  0
 15 14  1  0  0  0  0
 16 17  1  0  0  0  0
 17  8  1  0  0  0  0
 17 11  2  0  0  0  0
 18 20  1  0  0  0  0
 20 19  1  1  0  0  0
 20 21  1  0  0  0  0
 22 21  1  0  0  0  0
 22 23  1  0  0  0  0
 23 24  1  6  0  0  0
 25 26  1  0  0  0  0
 25 23  1  0  0  0  0
 27 25  2  0  0  0  0
M  END
>  <MODEL>
7

>  <REMARK>
 VINA RESULT:      -7.2      3.390      4.745
  Name = ./data/cofactor_redock/pdb/l0c0.pdb
  7 active torsions:
  status: ('A' for Active; 'I' for Inactive)
    1  A    between atoms: S1_2  and  C2_3
    2  A    between atoms: S1_2  and  C6_10
    3  A    between atoms: C2_3  and  C3_4
    4  A    between atoms: C3_4  and  C4_5
    5  A    between atoms: C4_5  and  C5_7
    6  A    between atoms: C6_10  and  C7_11
    7  A    between atoms: C8_13  and  N2_14
                            x       y       z     vdW  Elec       q    Type
                         _______ _______ _______ _____ _____    ______ ____

>  <TORSDO>
F 7

$$$$
./data/cofactor_redock/pdb/l0c0.pdb
 OpenBabel11272014163D

 27 29  0  0  1  0  0  0  0  0999 V2000
   -2.7620   42.8490   -3.3590 C   0  0  1  0  0  3  0  0  0  0  0  0
   -3.3990   44.1100   -3.3220 O   0  0  0  0  0  0  0  0  0  0  0  0
   -3.0360   44.8250   -4.4840 C   0  0  2  0  0  3  0  0  0  0  0  0
   -2.1150   43.9610   -5.3520 C   0  0  2  0  0  3  0  0  0  0  0  0
   -2.8110   43.4140   -6.4500 O   0  0  0  0  0  1  0  0  0  0  0  0
   -1.6390   42.8980   -4.3920 C   0  0  2  0  0  3  0  0  0  0  0  0
   -1.4650   41.6570   -5.0300 O   0  0  0  0  0  1  0  0  0  0  0  0
   -2.3670   46.0720   -4.1010 N   0  0  0  0  0  0  0  0  0  0  0  0
   -1.1600   46.2280   -3.4950 C   0  0  0  0  0  3  0  0  0  0  0  0
   -0.7920   47.5310   -3.3510 N   0  0  0  0  0  0  0  0  0  0  0  0
   -1.8240   48.1940   -3.9080 C   0  0  0  0  0  0  0  0  0  0  0  0
   -2.0040   49.5620   -4.0800 C   0  0  0  0  0  0  0  0  0  0  0  0
   -1.0350   50.5060   -3.6180 N   0  0  0  0  0  1  0  0  0  0  0  0
   -3.1450   49.9770   -4.7150 N   0  0  0  0  0  0  0  0  0  0  0  0
   -4.0760   49.0730   -5.1670 C   0  0  0  0  0  3  0  0  0  0  0  0
   -3.8850   47.7300   -4.9940 N   0  0  0  0  0  0  0  0  0  0  0  0
   -2.7570   47.3270   -4.3610 C   0  0  0  0  0  0  0  0  0  0  0  0
   -2.2300   42.4870   -1.9680 C   0  0  0  0  0  2  0  0  0  0  0  0
   -4.7920   41.2220   -1.3400 C   0  0  0  0  0  1  0  0  0  0  0  0
   -3.0270   41.0090   -1.3560 S   0  0  1  0  0  3  0  0  0  0  0  0
   -2.5880   39.5650   -2.3160 C   0  0  0  0  0  2  0  0  0  0  0  0
   -2.0990   38.3940   -1.4450 C   0  0  0  0  0  2  0  0  0  0  0  0
   -2.7770   38.2990   -0.0590 C   0  0  2  0  0  3  0  0  0  0  0  0
   -1.7970   37.8560    0.9370 N   0  0  0  0  0  1  0  0  0  0  0  0
   -3.9670   37.3740   -0.0730 C   0  0  0  0  0  0  0  0  0  0  0  0
   -3.8200   36.1350    0.1080 O   0  0  0  0  0  1  0  0  0  0  0  0
   -5.2420   37.8930   -0.2620 O   0  0  0  0  0  0  0  0  0  0  0  0
  1  2  1  0  0  0  0
  1 18  1  1  0  0  0
  3  8  1  1  0  0  0
  3  2  1  0  0  0  0
  4  5  1  6  0  0  0
  4  3  1  0  0  0  0
  4  6  1  0  0  0  0
  6  7  1  6  0  0  0
  6  1  1  0  0  0  0
  8  9  1  0  0  0  0
  9 10  2  0  0  0  0
 11 10  1  0  0  0  0
 12 11  1  0  0  0  0
 12 13  1  0  0  0  0
 14 12  2  0  0  0  0
 15 16  2  0  0  0  0
 15 14  1  0  0  0  0
 16 17  1  0  0  0  0
 17  8  1  0  0  0  0
 17 11  2  0  0  0  0
 18 20  1  0  0  0  0
 20 19  1  6  0  0  0
 21 22  1  0  0  0  0
 21 20  1  0  0  0  0
 22 23  1  0  0  0  0
 23 24  1  1  0  0  0
 25 23  1  0  0  0  0
 25 26  1  0  0  0  0
 27 25  2  0  0  0  0
M  END
>  <MODEL>
8

>  <REMARK>
 VINA RESULT:      -7.1      2.425      2.912
  Name = ./data/cofactor_redock/pdb/l0c0.pdb
  7 active torsions:
  status: ('A' for Active; 'I' for Inactive)
    1  A    between atoms: S1_2  and  C2_3
    2  A    between atoms: S1_2  and  C6_10
    3  A    between atoms: C2_3  and  C3_4
    4  A    between atoms: C3_4  and  C4_5
    5  A    between atoms: C4_5  and  C5_7
    6  A    between atoms: C6_10  and  C7_11
    7  A    between atoms: C8_13  and  N2_14
                            x       y       z     vdW  Elec       q    Type
                         _______ _______ _______ _____ _____    ______ ____

>  <TORSDO>
F 7

$$$$
./data/cofactor_redock/pdb/l0c0.pdb
 OpenBabel11272014163D

 27 29  0  0  1  0  0  0  0  0999 V2000
   -3.3980   43.3300   -3.6400 C   0  0  1  0  0  3  0  0  0  0  0  0
   -4.0880   44.4380   -4.1810 O   0  0  0  0  0  0  0  0  0  0  0  0
   -3.3260   44.9580   -5.2500 C   0  0  2  0  0  3  0  0  0  0  0  0
   -2.0590   44.1150   -5.4340 C   0  0  2  0  0  3  0  0  0  0  0  0
   -2.1800   43.2440   -6.5360 O   0  0  0  0  0  1  0  0  0  0  0  0
   -1.9510   43.3700   -4.1250 C   0  0  2  0  0  3  0  0  0  0  0  0
   -1.4270   42.0780   -4.3020 O   0  0  0  0  0  1  0  0  0  0  0  0
   -2.9820   46.3560   -4.9710 N   0  0  0  0  0  0  0  0  0  0  0  0
   -3.6810   47.4750   -5.2950 C   0  0  0  0  0  3  0  0  0  0  0  0
   -3.1210   48.6200   -4.8160 N   0  0  0  0  0  0  0  0  0  0  0  0
   -2.0350   48.1670   -4.1600 C   0  0  0  0  0  0  0  0  0  0  0  0
   -1.0810   48.8750   -3.4380 C   0  0  0  0  0  0  0  0  0  0  0  0
   -1.1370   50.2990   -3.3230 N   0  0  0  0  0  1  0  0  0  0  0  0
   -0.0820   48.1580   -2.8340 N   0  0  0  0  0  0  0  0  0  0  0  0
   -0.0270   46.7890   -2.9350 C   0  0  0  0  0  3  0  0  0  0  0  0
   -0.9740   46.1050   -3.6460 N   0  0  0  0  0  0  0  0  0  0  0  0
   -1.9560   46.8200   -4.2450 C   0  0  0  0  0  0  0  0  0  0  0  0
   -3.4780   43.3570   -2.1100 C   0  0  0  0  0  2  0  0  0  0  0  0
   -2.1420   41.2880   -0.5310 C   0  0  0  0  0  1  0  0  0  0  0  0
   -3.6030   41.6990   -1.4580 S   0  0  1  0  0  3  0  0  0  0  0  0
   -5.0580   41.4860   -0.4400 C   0  0  0  0  0  2  0  0  0  0  0  0
   -5.8800   40.2420   -0.8250 C   0  0  0  0  0  2  0  0  0  0  0  0
   -6.4850   39.4770    0.3750 C   0  0  2  0  0  3  0  0  0  0  0  0
   -6.2290   38.0430    0.2210 N   0  0  0  0  0  1  0  0  0  0  0  0
   -7.9620   39.7350    0.5240 C   0  0  0  0  0  0  0  0  0  0  0  0
   -8.8030   39.0340   -0.1020 O   0  0  0  0  0  0  0  0  0  0  0  0
   -8.4050   40.7370    1.3790 O   0  0  0  0  0  1  0  0  0  0  0  0
  1 18  1  1  0  0  0
  2  1  1  0  0  0  0
  3  8  1  1  0  0  0
  3  2  1  0  0  0  0
  4  5  1  6  0  0  0
  4  3  1  0  0  0  0
  4  6  1  0  0  0  0
  6  7  1  6  0  0  0
  6  1  1  0  0  0  0
  8 17  1  0  0  0  0
  9  8  1  0  0  0  0
  9 10  2  0  0  0  0
 10 11  1  0  0  0  0
 11 12  1  0  0  0  0
 12 13  1  0  0  0  0
 12 14  2  0  0  0  0
 15 14  1  0  0  0  0
 16 15  2  0  0  0  0
 17 11  2  0  0  0  0
 17 16  1  0  0  0  0
 18 20  1  0  0  0  0
 20 19  1  1  0  0  0
 20 21  1  0  0  0  0
 22 21  1  0  0  0  0
 22 23  1  0  0  0  0
 23 24  1  6  0  0  0
 23 25  1  0  0  0  0
 25 27  1  0  0  0  0
 26 25  2  0  0  0  0
M  END
>  <MODEL>
9

>  <REMARK>
 VINA RESULT:      -7.1      1.288      2.144
  Name = ./data/cofactor_redock/pdb/l0c0.pdb
  7 active torsions:
  status: ('A' for Active; 'I' for Inactive)
    1  A    between atoms: S1_2  and  C2_3
    2  A    between atoms: S1_2  and  C6_10
    3  A    between atoms: C2_3  and  C3_4
    4  A    between atoms: C3_4  and  C4_5
    5  A    between atoms: C4_5  and  C5_7
    6  A    between atoms: C6_10  and  C7_11
    7  A    between atoms: C8_13  and  N2_14
                            x       y       z     vdW  Elec       q    Type
                         _______ _______ _______ _____ _____    ______ ____

>  <TORSDO>
F 7

$$$$
