MODEL 1
REMARK VINA RESULT:      -7.3      0.000      0.000
REMARK  Name = ./data/4u7t_site_bc02/pdb/l0c1.pdb
REMARK  11 active torsions:
REMARK  status: ('A' for Active; 'I' for Inactive)
REMARK    1  A    between atoms: O1_2  and  C2_3
REMARK    2  A    between atoms: C5_6  and  C6_7
REMARK    3  A    between atoms: N2_9  and  C7_10
REMARK    4  A    between atoms: C19_23  and  O3_24
REMARK    5  A    between atoms: O3_24  and  C20_25
REMARK    6  A    between atoms: C20_25  and  C21_26
REMARK    7  A    between atoms: C21_26  and  C22_27
REMARK    8  A    between atoms: C22_27  and  C23_28
REMARK    9  A    between atoms: C23_28  and  O4_29
REMARK   10  A    between atoms: O4_29  and  C24_30
REMARK   11  A    between atoms: C27_33  and  C28_34
REMARK                            x       y       z     vdW  Elec       q    Type
REMARK                         _______ _______ _______ _____ _____    ______ ____
ROOT
ATOM      1  C2  UNL     1      35.527 102.631  -9.634  0.00  0.00    +0.172 A 
ATOM      2  C3  UNL     1      36.549 101.878 -10.234  0.00  0.00    +0.040 A 
ATOM      3  C4  UNL     1      36.572 100.487 -10.106  0.00  0.00    +0.005 A 
ATOM      4  C5  UNL     1      35.580  99.815  -9.371  0.00  0.00    +0.019 A 
ATOM      5  C18 UNL     1      34.534 100.569  -8.814  0.00  0.00    +0.041 A 
ATOM      6  C19 UNL     1      34.508 101.974  -8.928  0.00  0.00    +0.172 A 
ENDROOT
BRANCH   4   7
ATOM      7  C6  UNL     1      35.689  98.346  -9.150  0.00  0.00    +0.086 C 
ATOM      8  N1  UNL     1      35.552  97.508 -10.129  0.00  0.00    -0.171 NA
ATOM      9  N2  UNL     1      35.915  96.228  -9.712  0.00  0.00    -0.222 N 
ATOM     10  C14 UNL     1      36.287  96.254  -8.473  0.00  0.00    +0.257 C 
ATOM     11  O2  UNL     1      36.725  95.124  -7.786  0.00  0.00    -0.270 OA
ATOM     12  C15 UNL     1      36.175  97.633  -7.892  0.00  0.00    +0.110 C 
ATOM     13  C16 UNL     1      35.131  97.624  -6.760  0.00  0.00    +0.015 C 
ATOM     14  C17 UNL     1      37.555  98.137  -7.428  0.00  0.00    +0.015 C 
BRANCH   9  15
ATOM     15  C7  UNL     1      35.878  95.029 -10.563  0.00  0.00    +0.108 C 
ATOM     16  C8  UNL     1      34.979  93.922  -9.945  0.00  0.00    +0.024 C 
ATOM     17  C9  UNL     1      34.316  93.038 -11.014  0.00  0.00    +0.002 C 
ATOM     18  C10 UNL     1      35.258  92.012 -11.650  0.00  0.00    +0.000 C 
ATOM     19  C11 UNL     1      36.475  92.648 -12.342  0.00  0.00    +0.000 C 
ATOM     20  C12 UNL     1      37.524  93.120 -11.325  0.00  0.00    +0.002 C 
ATOM     21  C13 UNL     1      37.333  94.575 -10.865  0.00  0.00    +0.024 C 
ENDBRANCH   9  15
ENDBRANCH   4   7
BRANCH   1  23
ATOM     22  C1  UNL     1      36.208 104.911  -8.857  0.00  0.00    +0.253 C 
ATOM     23  O1  UNL     1      35.486 104.034  -9.715  0.00  0.00    -0.468 OA
ENDBRANCH   1  23
BRANCH   6  24
ATOM     24  O3  UNL     1      33.490 102.758  -8.348  0.00  0.00    -0.472 OA
BRANCH  24  25
ATOM     25  C20 UNL     1      32.320 103.226  -9.023  0.00  0.00    +0.206 C 
BRANCH  25  26
ATOM     26  C21 UNL     1      31.197 102.181  -8.954  0.00  0.00    +0.051 C 
BRANCH  26  27
ATOM     27  C22 UNL     1      31.124 101.377 -10.259  0.00  0.00    +0.051 C 
BRANCH  27  28
ATOM     28  C23 UNL     1      30.838  99.897  -9.987  0.00  0.00    +0.206 C 
BRANCH  28  29
ATOM     29  O4  UNL     1      31.207  99.557  -8.652  0.00  0.00    -0.475 OA
BRANCH  29  30
ATOM     30  C24 UNL     1      30.406  98.856  -7.734  0.00  0.00    +0.139 A 
ATOM     31  C25 UNL     1      29.001  98.938  -7.722  0.00  0.00    +0.037 A 
ATOM     32  C26 UNL     1      28.257  98.194  -6.798  0.00  0.00    +0.006 A 
ATOM     33  C27 UNL     1      28.898  97.359  -5.863  0.00  0.00    +0.040 A 
ATOM     34  C29 UNL     1      30.303  97.297  -5.873  0.00  0.00    +0.006 A 
ATOM     35  C30 UNL     1      31.045  98.034  -6.801  0.00  0.00    +0.037 A 
BRANCH  33  36
ATOM     36  C28 UNL     1      28.107  96.551  -4.890  0.00  0.00    +0.208 A 
ATOM     37  N3  UNL     1      26.759  96.489  -4.840  0.00  0.00    -0.106 NA
ATOM     38  N4  UNL     1      26.471  95.673  -3.840  0.00  0.00    -0.021 NA
ATOM     39  N5  UNL     1      27.591  95.239  -3.285  0.00  0.00    -0.021 NA
ATOM     40  N6  UNL     1      28.626  95.770  -3.916  0.00  0.00    -0.106 NA
ENDBRANCH  33  36
ENDBRANCH  29  30
ENDBRANCH  28  29
ENDBRANCH  27  28
ENDBRANCH  26  27
ENDBRANCH  25  26
ENDBRANCH  24  25
ENDBRANCH   6  24
TORSDOF 11
ENDMDL
MODEL 2
REMARK VINA RESULT:      -6.1      3.056      8.111
REMARK  Name = ./data/4u7t_site_bc02/pdb/l0c1.pdb
REMARK  11 active torsions:
REMARK  status: ('A' for Active; 'I' for Inactive)
REMARK    1  A    between atoms: O1_2  and  C2_3
REMARK    2  A    between atoms: C5_6  and  C6_7
REMARK    3  A    between atoms: N2_9  and  C7_10
REMARK    4  A    between atoms: C19_23  and  O3_24
REMARK    5  A    between atoms: O3_24  and  C20_25
REMARK    6  A    between atoms: C20_25  and  C21_26
REMARK    7  A    between atoms: C21_26  and  C22_27
REMARK    8  A    between atoms: C22_27  and  C23_28
REMARK    9  A    between atoms: C23_28  and  O4_29
REMARK   10  A    between atoms: O4_29  and  C24_30
REMARK   11  A    between atoms: C27_33  and  C28_34
REMARK                            x       y       z     vdW  Elec       q    Type
REMARK                         _______ _______ _______ _____ _____    ______ ____
ROOT
ATOM      1  C2  UNL     1      36.799  94.541  -9.444  0.00  0.00    +0.172 A 
ATOM      2  C3  UNL     1      36.159  94.262  -8.226  0.00  0.00    +0.040 A 
ATOM      3  C4  UNL     1      35.053  95.012  -7.818  0.00  0.00    +0.005 A 
ATOM      4  C5  UNL     1      34.564  96.064  -8.612  0.00  0.00    +0.019 A 
ATOM      5  C18 UNL     1      35.179  96.307  -9.851  0.00  0.00    +0.041 A 
ATOM      6  C19 UNL     1      36.301  95.564 -10.267  0.00  0.00    +0.172 A 
ENDROOT
BRANCH   4   7
ATOM      7  C6  UNL     1      33.460  96.924  -8.104  0.00  0.00    +0.086 C 
ATOM      8  N1  UNL     1      32.456  96.417  -7.460  0.00  0.00    -0.171 NA
ATOM      9  N2  UNL     1      31.684  97.438  -6.904  0.00  0.00    -0.222 N 
ATOM     10  C14 UNL     1      32.199  98.589  -7.191  0.00  0.00    +0.257 C 
ATOM     11  O2  UNL     1      31.656  99.795  -6.754  0.00  0.00    -0.270 OA
ATOM     12  C15 UNL     1      33.426  98.448  -8.044  0.00  0.00    +0.110 C 
ATOM     13  C16 UNL     1      33.170  99.102  -9.414  0.00  0.00    +0.015 C 
ATOM     14  C17 UNL     1      34.655  99.034  -7.322  0.00  0.00    +0.015 C 
BRANCH   9  15
ATOM     15  C7  UNL     1      30.464  97.225  -6.110  0.00  0.00    +0.108 C 
ATOM     16  C8  UNL     1      30.142  95.712  -5.961  0.00  0.00    +0.024 C 
ATOM     17  C9  UNL     1      29.422  95.392  -4.640  0.00  0.00    +0.002 C 
ATOM     18  C10 UNL     1      27.939  95.778  -4.627  0.00  0.00    +0.000 C 
ATOM     19  C11 UNL     1      27.698  97.277  -4.872  0.00  0.00    +0.000 C 
ATOM     20  C12 UNL     1      27.876  97.646  -6.352  0.00  0.00    +0.002 C 
ATOM     21  C13 UNL     1      29.309  98.067  -6.719  0.00  0.00    +0.024 C 
ENDBRANCH   9  15
ENDBRANCH   4   7
BRANCH   1  23
ATOM     22  C1  UNL     1      39.259  94.083  -9.429  0.00  0.00    +0.253 C 
ATOM     23  O1  UNL     1      37.932  93.829  -9.875  0.00  0.00    -0.468 OA
ENDBRANCH   1  23
BRANCH   6  24
ATOM     24  O3  UNL     1      36.959  95.811 -11.489  0.00  0.00    -0.472 OA
BRANCH  24  25
ATOM     25  C20 UNL     1      37.431  97.085 -11.933  0.00  0.00    +0.206 C 
BRANCH  25  26
ATOM     26  C21 UNL     1      38.229  97.786 -10.825  0.00  0.00    +0.051 C 
BRANCH  26  27
ATOM     27  C22 UNL     1      39.353  98.642 -11.423  0.00  0.00    +0.051 C 
BRANCH  27  28
ATOM     28  C23 UNL     1      38.831 100.006 -11.883  0.00  0.00    +0.206 C 
BRANCH  28  29
ATOM     29  O4  UNL     1      38.484 100.811 -10.757  0.00  0.00    -0.475 OA
BRANCH  29  30
ATOM     30  C24 UNL     1      37.202 101.310 -10.471  0.00  0.00    +0.139 A 
ATOM     31  C25 UNL     1      36.212 101.493 -11.454  0.00  0.00    +0.037 A 
ATOM     32  C26 UNL     1      34.944 101.970 -11.101  0.00  0.00    +0.006 A 
ATOM     33  C27 UNL     1      34.639 102.281  -9.761  0.00  0.00    +0.040 A 
ATOM     34  C29 UNL     1      35.641 102.110  -8.789  0.00  0.00    +0.006 A 
ATOM     35  C30 UNL     1      36.905 101.627  -9.141  0.00  0.00    +0.037 A 
BRANCH  33  36
ATOM     36  C28 UNL     1      33.283 102.771  -9.379  0.00  0.00    +0.208 A 
ATOM     37  N3  UNL     1      32.757 102.720  -8.137  0.00  0.00    -0.106 NA
ATOM     38  N4  UNL     1      31.547 103.248  -8.235  0.00  0.00    -0.021 NA
ATOM     39  N5  UNL     1      31.325 103.617  -9.486  0.00  0.00    -0.021 NA
ATOM     40  N6  UNL     1      32.386 103.331 -10.222  0.00  0.00    -0.106 NA
ENDBRANCH  33  36
ENDBRANCH  29  30
ENDBRANCH  28  29
ENDBRANCH  27  28
ENDBRANCH  26  27
ENDBRANCH  25  26
ENDBRANCH  24  25
ENDBRANCH   6  24
TORSDOF 11
ENDMDL
MODEL 3
REMARK VINA RESULT:      -5.9      3.548      8.629
REMARK  Name = ./data/4u7t_site_bc02/pdb/l0c1.pdb
REMARK  11 active torsions:
REMARK  status: ('A' for Active; 'I' for Inactive)
REMARK    1  A    between atoms: O1_2  and  C2_3
REMARK    2  A    between atoms: C5_6  and  C6_7
REMARK    3  A    between atoms: N2_9  and  C7_10
REMARK    4  A    between atoms: C19_23  and  O3_24
REMARK    5  A    between atoms: O3_24  and  C20_25
REMARK    6  A    between atoms: C20_25  and  C21_26
REMARK    7  A    between atoms: C21_26  and  C22_27
REMARK    8  A    between atoms: C22_27  and  C23_28
REMARK    9  A    between atoms: C23_28  and  O4_29
REMARK   10  A    between atoms: O4_29  and  C24_30
REMARK   11  A    between atoms: C27_33  and  C28_34
REMARK                            x       y       z     vdW  Elec       q    Type
REMARK                         _______ _______ _______ _____ _____    ______ ____
ROOT
ATOM      1  C2  UNL     1      37.108  95.920  -8.175  0.00  0.00    +0.172 A 
ATOM      2  C3  UNL     1      36.690  96.563  -6.999  0.00  0.00    +0.040 A 
ATOM      3  C4  UNL     1      35.512  97.315  -6.983  0.00  0.00    +0.005 A 
ATOM      4  C5  UNL     1      34.728  97.450  -8.142  0.00  0.00    +0.019 A 
ATOM      5  C18 UNL     1      35.127  96.765  -9.302  0.00  0.00    +0.041 A 
ATOM      6  C19 UNL     1      36.318  96.014  -9.331  0.00  0.00    +0.172 A 
ENDROOT
BRANCH   4   7
ATOM      7  C6  UNL     1      33.542  98.350  -8.133  0.00  0.00    +0.086 C 
ATOM      8  N1  UNL     1      33.356  99.224  -9.072  0.00  0.00    -0.171 NA
ATOM      9  N2  UNL     1      32.081  99.779  -8.956  0.00  0.00    -0.222 N 
ATOM     10  C14 UNL     1      31.459  99.256  -7.950  0.00  0.00    +0.257 C 
ATOM     11  O2  UNL     1      30.155  99.600  -7.598  0.00  0.00    -0.270 OA
ATOM     12  C15 UNL     1      32.317  98.258  -7.229  0.00  0.00    +0.110 C 
ATOM     13  C16 UNL     1      32.582  98.758  -5.797  0.00  0.00    +0.015 C 
ATOM     14  C17 UNL     1      31.666  96.862  -7.263  0.00  0.00    +0.015 C 
BRANCH   9  15
ATOM     15  C7  UNL     1      31.533 100.809  -9.853  0.00  0.00    +0.108 C 
ATOM     16  C8  UNL     1      30.624 101.807  -9.082  0.00  0.00    +0.024 C 
ATOM     17  C9  UNL     1      30.641 103.215  -9.700  0.00  0.00    +0.002 C 
ATOM     18  C10 UNL     1      29.811 103.345 -10.981  0.00  0.00    +0.000 C 
ATOM     19  C11 UNL     1      30.271 102.400 -12.104  0.00  0.00    +0.000 C 
ATOM     20  C12 UNL     1      29.822 100.954 -11.849  0.00  0.00    +0.002 C 
ATOM     21  C13 UNL     1      30.841 100.115 -11.059  0.00  0.00    +0.024 C 
ENDBRANCH   9  15
ENDBRANCH   4   7
BRANCH   1  23
ATOM     22  C1  UNL     1      38.579  94.029  -7.449  0.00  0.00    +0.253 C 
ATOM     23  O1  UNL     1      38.302  95.180  -8.239  0.00  0.00    -0.468 OA
ENDBRANCH   1  23
BRANCH   6  24
ATOM     24  O3  UNL     1      36.760  95.346 -10.492  0.00  0.00    -0.472 OA
BRANCH  24  25
ATOM     25  C20 UNL     1      36.822  95.915 -11.802  0.00  0.00    +0.206 C 
BRANCH  25  26
ATOM     26  C21 UNL     1      38.278  96.159 -12.221  0.00  0.00    +0.051 C 
BRANCH  26  27
ATOM     27  C22 UNL     1      38.708  97.592 -11.883  0.00  0.00    +0.051 C 
BRANCH  27  28
ATOM     28  C23 UNL     1      39.444  97.652 -10.541  0.00  0.00    +0.206 C 
BRANCH  28  29
ATOM     29  O4  UNL     1      39.662  99.009 -10.154  0.00  0.00    -0.475 OA
BRANCH  29  30
ATOM     30  C24 UNL     1      38.664  99.919  -9.766  0.00  0.00    +0.139 A 
ATOM     31  C25 UNL     1      37.625  99.588  -8.877  0.00  0.00    +0.037 A 
ATOM     32  C26 UNL     1      36.675 100.548  -8.509  0.00  0.00    +0.006 A 
ATOM     33  C27 UNL     1      36.738 101.857  -9.025  0.00  0.00    +0.040 A 
ATOM     34  C29 UNL     1      37.772 102.174  -9.925  0.00  0.00    +0.006 A 
ATOM     35  C30 UNL     1      38.724 101.216 -10.286  0.00  0.00    +0.037 A 
BRANCH  33  36
ATOM     36  C28 UNL     1      35.739 102.888  -8.620  0.00  0.00    +0.208 A 
ATOM     37  N3  UNL     1      36.024 104.038  -7.972  0.00  0.00    -0.106 NA
ATOM     38  N4  UNL     1      34.865 104.654  -7.802  0.00  0.00    -0.021 NA
ATOM     39  N5  UNL     1      33.894 103.922  -8.323  0.00  0.00    -0.021 NA
ATOM     40  N6  UNL     1      34.406 102.816  -8.837  0.00  0.00    -0.106 NA
ENDBRANCH  33  36
ENDBRANCH  29  30
ENDBRANCH  28  29
ENDBRANCH  27  28
ENDBRANCH  26  27
ENDBRANCH  25  26
ENDBRANCH  24  25
ENDBRANCH   6  24
TORSDOF 11
ENDMDL
MODEL 4
REMARK VINA RESULT:      -5.4      2.012      2.786
REMARK  Name = ./data/4u7t_site_bc02/pdb/l0c1.pdb
REMARK  11 active torsions:
REMARK  status: ('A' for Active; 'I' for Inactive)
REMARK    1  A    between atoms: O1_2  and  C2_3
REMARK    2  A    between atoms: C5_6  and  C6_7
REMARK    3  A    between atoms: N2_9  and  C7_10
REMARK    4  A    between atoms: C19_23  and  O3_24
REMARK    5  A    between atoms: O3_24  and  C20_25
REMARK    6  A    between atoms: C20_25  and  C21_26
REMARK    7  A    between atoms: C21_26  and  C22_27
REMARK    8  A    between atoms: C22_27  and  C23_28
REMARK    9  A    between atoms: C23_28  and  O4_29
REMARK   10  A    between atoms: O4_29  and  C24_30
REMARK   11  A    between atoms: C27_33  and  C28_34
REMARK                            x       y       z     vdW  Elec       q    Type
REMARK                         _______ _______ _______ _____ _____    ______ ____
ROOT
ATOM      1  C2  UNL     1      35.641 101.962  -9.293  0.00  0.00    +0.172 A 
ATOM      2  C3  UNL     1      35.957 101.769 -10.648  0.00  0.00    +0.040 A 
ATOM      3  C4  UNL     1      36.604 100.603 -11.065  0.00  0.00    +0.005 A 
ATOM      4  C5  UNL     1      36.958  99.606 -10.140  0.00  0.00    +0.019 A 
ATOM      5  C18 UNL     1      36.596  99.783  -8.795  0.00  0.00    +0.041 A 
ATOM      6  C19 UNL     1      35.954 100.960  -8.362  0.00  0.00    +0.172 A 
ENDROOT
BRANCH   4   7
ATOM      7  C6  UNL     1      37.750  98.427 -10.589  0.00  0.00    +0.086 C 
ATOM      8  N1  UNL     1      37.191  97.271 -10.769  0.00  0.00    -0.171 NA
ATOM      9  N2  UNL     1      38.086  96.404 -11.395  0.00  0.00    -0.222 N 
ATOM     10  C14 UNL     1      39.209  97.008 -11.615  0.00  0.00    +0.257 C 
ATOM     11  O2  UNL     1      40.290  96.398 -12.247  0.00  0.00    -0.270 OA
ATOM     12  C15 UNL     1      39.187  98.418 -11.102  0.00  0.00    +0.110 C 
ATOM     13  C16 UNL     1      40.231  98.566  -9.980  0.00  0.00    +0.015 C 
ATOM     14  C17 UNL     1      39.403  99.416 -12.256  0.00  0.00    +0.015 C 
BRANCH   9  15
ATOM     15  C7  UNL     1      37.788  95.007 -11.748  0.00  0.00    +0.108 C 
ATOM     16  C8  UNL     1      36.320  94.635 -11.397  0.00  0.00    +0.024 C 
ATOM     17  C9  UNL     1      35.742  93.569 -12.342  0.00  0.00    +0.002 C 
ATOM     18  C10 UNL     1      36.241  92.148 -12.063  0.00  0.00    +0.000 C 
ATOM     19  C11 UNL     1      37.768  92.005 -12.170  0.00  0.00    +0.000 C 
ATOM     20  C12 UNL     1      38.481  92.597 -10.946  0.00  0.00    +0.002 C 
ATOM     21  C13 UNL     1      38.855  94.081 -11.100  0.00  0.00    +0.024 C 
ENDBRANCH   9  15
ENDBRANCH   4   7
BRANCH   1  23
ATOM     22  C1  UNL     1      33.671 103.496  -9.113  0.00  0.00    +0.253 C 
ATOM     23  O1  UNL     1      35.018 103.134  -8.830  0.00  0.00    -0.468 OA
ENDBRANCH   1  23
BRANCH   6  24
ATOM     24  O3  UNL     1      35.612 101.179  -7.011  0.00  0.00    -0.472 OA
BRANCH  24  25
ATOM     25  C20 UNL     1      35.416 100.159  -6.030  0.00  0.00    +0.206 C 
BRANCH  25  26
ATOM     26  C21 UNL     1      34.233  99.257  -6.412  0.00  0.00    +0.051 C 
BRANCH  26  27
ATOM     27  C22 UNL     1      33.161 100.056  -7.164  0.00  0.00    +0.051 C 
BRANCH  27  28
ATOM     28  C23 UNL     1      32.755  99.359  -8.464  0.00  0.00    +0.206 C 
BRANCH  28  29
ATOM     29  O4  UNL     1      32.351  98.015  -8.203  0.00  0.00    -0.475 OA
BRANCH  29  30
ATOM     30  C24 UNL     1      31.272  97.629  -7.389  0.00  0.00    +0.139 A 
ATOM     31  C25 UNL     1      30.107  98.404  -7.238  0.00  0.00    +0.037 A 
ATOM     32  C26 UNL     1      29.055  97.952  -6.433  0.00  0.00    +0.006 A 
ATOM     33  C27 UNL     1      29.146  96.720  -5.755  0.00  0.00    +0.040 A 
ATOM     34  C29 UNL     1      30.321  95.960  -5.901  0.00  0.00    +0.006 A 
ATOM     35  C30 UNL     1      31.367  96.409  -6.711  0.00  0.00    +0.037 A 
BRANCH  33  36
ATOM     36  C28 UNL     1      28.019  96.226  -4.912  0.00  0.00    +0.208 A 
ATOM     37  N3  UNL     1      28.151  95.521  -3.768  0.00  0.00    -0.106 NA
ATOM     38  N4  UNL     1      26.920  95.281  -3.347  0.00  0.00    -0.021 NA
ATOM     39  N5  UNL     1      26.051  95.816  -4.189  0.00  0.00    -0.021 NA
ATOM     40  N6  UNL     1      26.705  96.408  -5.175  0.00  0.00    -0.106 NA
ENDBRANCH  33  36
ENDBRANCH  29  30
ENDBRANCH  28  29
ENDBRANCH  27  28
ENDBRANCH  26  27
ENDBRANCH  25  26
ENDBRANCH  24  25
ENDBRANCH   6  24
TORSDOF 11
ENDMDL
MODEL 5
REMARK VINA RESULT:      -4.5      4.580      8.661
REMARK  Name = ./data/4u7t_site_bc02/pdb/l0c1.pdb
REMARK  11 active torsions:
REMARK  status: ('A' for Active; 'I' for Inactive)
REMARK    1  A    between atoms: O1_2  and  C2_3
REMARK    2  A    between atoms: C5_6  and  C6_7
REMARK    3  A    between atoms: N2_9  and  C7_10
REMARK    4  A    between atoms: C19_23  and  O3_24
REMARK    5  A    between atoms: O3_24  and  C20_25
REMARK    6  A    between atoms: C20_25  and  C21_26
REMARK    7  A    between atoms: C21_26  and  C22_27
REMARK    8  A    between atoms: C22_27  and  C23_28
REMARK    9  A    between atoms: C23_28  and  O4_29
REMARK   10  A    between atoms: O4_29  and  C24_30
REMARK   11  A    between atoms: C27_33  and  C28_34
REMARK                            x       y       z     vdW  Elec       q    Type
REMARK                         _______ _______ _______ _____ _____    ______ ____
ROOT
ATOM      1  C2  UNL     1      35.636  95.426  -8.545  0.00  0.00    +0.172 A 
ATOM      2  C3  UNL     1      34.545  96.305  -8.461  0.00  0.00    +0.040 A 
ATOM      3  C4  UNL     1      34.746  97.688  -8.483  0.00  0.00    +0.005 A 
ATOM      4  C5  UNL     1      36.041  98.226  -8.582  0.00  0.00    +0.019 A 
ATOM      5  C18 UNL     1      37.123  97.341  -8.713  0.00  0.00    +0.041 A 
ATOM      6  C19 UNL     1      36.933  95.946  -8.681  0.00  0.00    +0.172 A 
ENDROOT
BRANCH   4   7
ATOM      7  C6  UNL     1      36.240  99.698  -8.486  0.00  0.00    +0.086 C 
ATOM      8  N1  UNL     1      37.032 100.324  -9.299  0.00  0.00    -0.171 NA
ATOM      9  N2  UNL     1      36.875 101.702  -9.149  0.00  0.00    -0.222 N 
ATOM     10  C14 UNL     1      35.983 101.950  -8.246  0.00  0.00    +0.257 C 
ATOM     11  O2  UNL     1      35.598 103.242  -7.891  0.00  0.00    -0.270 OA
ATOM     12  C15 UNL     1      35.440 100.687  -7.642  0.00  0.00    +0.110 C 
ATOM     13  C16 UNL     1      35.805 100.642  -6.147  0.00  0.00    +0.015 C 
ATOM     14  C17 UNL     1      33.924 100.579  -7.892  0.00  0.00    +0.015 C 
BRANCH   9  15
ATOM     15  C7  UNL     1      37.620 102.716  -9.911  0.00  0.00    +0.108 C 
ATOM     16  C8  UNL     1      36.907 103.054 -11.250  0.00  0.00    +0.024 C 
ATOM     17  C9  UNL     1      37.154 104.505 -11.696  0.00  0.00    +0.002 C 
ATOM     18  C10 UNL     1      38.543 104.748 -12.296  0.00  0.00    +0.000 C 
ATOM     19  C11 UNL     1      39.691 104.417 -11.328  0.00  0.00    +0.000 C 
ATOM     20  C12 UNL     1      39.908 102.902 -11.201  0.00  0.00    +0.002 C 
ATOM     21  C13 UNL     1      39.093 102.249 -10.071  0.00  0.00    +0.024 C 
ENDBRANCH   9  15
ENDBRANCH   4   7
BRANCH   1  23
ATOM     22  C1  UNL     1      35.267  93.202  -9.633  0.00  0.00    +0.253 C 
ATOM     23  O1  UNL     1      35.478  94.030  -8.495  0.00  0.00    -0.468 OA
ENDBRANCH   1  23
BRANCH   6  24
ATOM     24  O3  UNL     1      38.006  95.035  -8.774  0.00  0.00    -0.472 OA
BRANCH  24  25
ATOM     25  C20 UNL     1      39.370  95.328  -8.463  0.00  0.00    +0.206 C 
BRANCH  25  26
ATOM     26  C21 UNL     1      40.152  95.692  -9.733  0.00  0.00    +0.051 C 
BRANCH  26  27
ATOM     27  C22 UNL     1      39.833  94.709 -10.867  0.00  0.00    +0.051 C 
BRANCH  27  28
ATOM     28  C23 UNL     1      39.353  95.442 -12.123  0.00  0.00    +0.206 C 
BRANCH  28  29
ATOM     29  O4  UNL     1      37.964  95.198 -12.340  0.00  0.00    -0.475 OA
BRANCH  29  30
ATOM     30  C24 UNL     1      36.948  96.169 -12.315  0.00  0.00    +0.139 A 
ATOM     31  C25 UNL     1      35.579  95.847 -12.264  0.00  0.00    +0.037 A 
ATOM     32  C26 UNL     1      34.615  96.861 -12.215  0.00  0.00    +0.006 A 
ATOM     33  C27 UNL     1      34.996  98.217 -12.223  0.00  0.00    +0.040 A 
ATOM     34  C29 UNL     1      36.367  98.528 -12.289  0.00  0.00    +0.006 A 
ATOM     35  C30 UNL     1      37.329  97.514 -12.331  0.00  0.00    +0.037 A 
BRANCH  33  36
ATOM     36  C28 UNL     1      33.973  99.301 -12.151  0.00  0.00    +0.208 A 
ATOM     37  N3  UNL     1      32.638  99.121 -12.249  0.00  0.00    -0.106 NA
ATOM     38  N4  UNL     1      32.102 100.325 -12.140  0.00  0.00    -0.021 NA
ATOM     39  N5  UNL     1      33.060 101.224 -11.978  0.00  0.00    -0.021 NA
ATOM     40  N6  UNL     1      34.235 100.617 -11.983  0.00  0.00    -0.106 NA
ENDBRANCH  33  36
ENDBRANCH  29  30
ENDBRANCH  28  29
ENDBRANCH  27  28
ENDBRANCH  26  27
ENDBRANCH  25  26
ENDBRANCH  24  25
ENDBRANCH   6  24
TORSDOF 11
ENDMDL
