MODEL 1
REMARK VINA RESULT:      -3.4      0.000      0.000
REMARK  Name = ./data/4u7t_site_bc02/pdb/l1c0.pdb
REMARK  11 active torsions:
REMARK  status: ('A' for Active; 'I' for Inactive)
REMARK    1  A    between atoms: O1_2  and  C2_3
REMARK    2  A    between atoms: C5_6  and  C6_7
REMARK    3  A    between atoms: N2_9  and  C7_10
REMARK    4  A    between atoms: C22_26  and  O3_27
REMARK    5  A    between atoms: O3_27  and  C23_28
REMARK    6  A    between atoms: C23_28  and  C24_29
REMARK    7  A    between atoms: C24_29  and  C25_30
REMARK    8  A    between atoms: C25_30  and  C26_31
REMARK    9  A    between atoms: C26_31  and  O4_32
REMARK   10  A    between atoms: O4_32  and  C27_33
REMARK   11  A    between atoms: C30_36  and  C31_37
REMARK                            x       y       z     vdW  Elec       q    Type
REMARK                         _______ _______ _______ _____ _____    ______ ____
ROOT
ATOM      1  C2  UNL     1      18.623  81.295   6.842  0.00  0.00    +0.172 A 
ATOM      2  C3  UNL     1      18.136  79.986   6.692  0.00  0.00    +0.040 A 
ATOM      3  C4  UNL     1      16.780  79.759   6.458  0.00  0.00    +0.005 A 
ATOM      4  C5  UNL     1      15.873  80.830   6.360  0.00  0.00    +0.018 A 
ATOM      5  C21 UNL     1      16.369  82.141   6.498  0.00  0.00    +0.041 A 
ATOM      6  C22 UNL     1      17.735  82.377   6.760  0.00  0.00    +0.172 A 
ENDROOT
BRANCH   4   7
ATOM      7  C6  UNL     1      14.425  80.557   6.109  0.00  0.00    +0.079 C 
ATOM      8  N1  UNL     1      13.866  79.550   6.714  0.00  0.00    -0.172 NA
ATOM      9  N2  UNL     1      12.512  79.187   6.564  0.00  0.00    -0.222 N 
ATOM     10  C14 UNL     1      11.652  80.009   6.005  0.00  0.00    +0.253 C 
ATOM     11  O2  UNL     1      10.297  79.666   5.959  0.00  0.00    -0.271 OA
ATOM     12  C15 UNL     1      12.115  81.366   5.488  0.00  0.00    +0.091 C 
ATOM     13  C16 UNL     1      11.300  81.867   4.278  0.00  0.00    +0.035 C 
ATOM     14  C17 UNL     1      11.461  80.912   3.135  0.00  0.00    -0.030 C 
ATOM     15  C18 UNL     1      12.665  80.389   2.870  0.00  0.00    -0.030 C 
ATOM     16  C19 UNL     1      13.895  80.799   3.648  0.00  0.00    +0.032 C 
ATOM     17  C20 UNL     1      13.619  81.337   5.092  0.00  0.00    +0.056 C 
BRANCH   9  18
ATOM     18  C7  UNL     1      12.112  77.883   7.135  0.00  0.00    +0.108 C 
ATOM     19  C8  UNL     1      13.101  77.432   8.244  0.00  0.00    +0.024 C 
ATOM     20  C9  UNL     1      13.238  75.903   8.326  0.00  0.00    +0.002 C 
ATOM     21  C10 UNL     1      12.068  75.221   9.040  0.00  0.00    +0.000 C 
ATOM     22  C11 UNL     1      10.712  75.461   8.363  0.00  0.00    +0.000 C 
ATOM     23  C12 UNL     1      10.185  76.884   8.608  0.00  0.00    +0.002 C 
ATOM     24  C13 UNL     1      10.613  77.902   7.539  0.00  0.00    +0.024 C 
ENDBRANCH   9  18
ENDBRANCH   4   7
BRANCH   1  26
ATOM     25  C1  UNL     1      20.969  81.659   6.058  0.00  0.00    +0.253 C 
ATOM     26  O1  UNL     1      19.980  81.563   7.078  0.00  0.00    -0.468 OA
ENDBRANCH   1  26
BRANCH   6  27
ATOM     27  O3  UNL     1      18.256  83.670   6.942  0.00  0.00    -0.472 OA
BRANCH  27  28
ATOM     28  C23 UNL     1      17.607  84.889   6.580  0.00  0.00    +0.206 C 
BRANCH  28  29
ATOM     29  C24 UNL     1      18.257  86.078   7.293  0.00  0.00    +0.051 C 
BRANCH  29  30
ATOM     30  C25 UNL     1      18.203  85.910   8.817  0.00  0.00    +0.051 C 
BRANCH  30  31
ATOM     31  C26 UNL     1      18.467  87.233   9.533  0.00  0.00    +0.206 C 
BRANCH  31  32
ATOM     32  O4  UNL     1      17.404  87.497  10.447  0.00  0.00    -0.475 OA
BRANCH  32  33
ATOM     33  C27 UNL     1      16.156  88.025  10.091  0.00  0.00    +0.139 A 
ATOM     34  C28 UNL     1      15.106  87.133   9.859  0.00  0.00    +0.037 A 
ATOM     35  C29 UNL     1      13.849  87.598   9.468  0.00  0.00    +0.006 A 
ATOM     36  C30 UNL     1      13.611  88.978   9.318  0.00  0.00    +0.040 A 
ATOM     37  C32 UNL     1      14.664  89.878   9.578  0.00  0.00    +0.006 A 
ATOM     38  C33 UNL     1      15.926  89.406   9.954  0.00  0.00    +0.037 A 
BRANCH  36  39
ATOM     39  C31 UNL     1      12.277  89.472   8.889  0.00  0.00    +0.208 A 
ATOM     40  N3  UNL     1      11.903  89.707   7.612  0.00  0.00    -0.106 NA
ATOM     41  N4  UNL     1      10.646  90.110   7.674  0.00  0.00    -0.021 NA
ATOM     42  N5  UNL     1      10.249  90.130   8.935  0.00  0.00    -0.021 NA
ATOM     43  N6  UNL     1      11.239  89.736   9.715  0.00  0.00    -0.106 NA
ENDBRANCH  36  39
ENDBRANCH  32  33
ENDBRANCH  31  32
ENDBRANCH  30  31
ENDBRANCH  29  30
ENDBRANCH  28  29
ENDBRANCH  27  28
ENDBRANCH   6  27
TORSDOF 11
ENDMDL
