MODEL 1
REMARK VINA RESULT:      -9.3      0.000      0.000
REMARK  Name = ./data/4u7t_site_bc02/pdb/l1c0.pdb
REMARK  11 active torsions:
REMARK  status: ('A' for Active; 'I' for Inactive)
REMARK    1  A    between atoms: O1_2  and  C2_3
REMARK    2  A    between atoms: C5_6  and  C6_7
REMARK    3  A    between atoms: N2_9  and  C7_10
REMARK    4  A    between atoms: C22_26  and  O3_27
REMARK    5  A    between atoms: O3_27  and  C23_28
REMARK    6  A    between atoms: C23_28  and  C24_29
REMARK    7  A    between atoms: C24_29  and  C25_30
REMARK    8  A    between atoms: C25_30  and  C26_31
REMARK    9  A    between atoms: C26_31  and  O4_32
REMARK   10  A    between atoms: O4_32  and  C27_33
REMARK   11  A    between atoms: C30_36  and  C31_37
REMARK                            x       y       z     vdW  Elec       q    Type
REMARK                         _______ _______ _______ _____ _____    ______ ____
ROOT
ATOM      1  C2  UNL     1      21.722  61.611   1.547  0.00  0.00    +0.172 A 
ATOM      2  C3  UNL     1      21.385  61.457   2.901  0.00  0.00    +0.040 A 
ATOM      3  C4  UNL     1      20.491  60.463   3.298  0.00  0.00    +0.005 A 
ATOM      4  C5  UNL     1      19.916  59.590   2.358  0.00  0.00    +0.018 A 
ATOM      5  C21 UNL     1      20.269  59.739   1.003  0.00  0.00    +0.041 A 
ATOM      6  C22 UNL     1      21.152  60.759   0.590  0.00  0.00    +0.172 A 
ENDROOT
BRANCH   4   7
ATOM      7  C6  UNL     1      18.960  58.533   2.813  0.00  0.00    +0.079 C 
ATOM      8  N1  UNL     1      19.284  57.797   3.835  0.00  0.00    -0.172 NA
ATOM      9  N2  UNL     1      18.474  56.770   4.361  0.00  0.00    -0.222 N 
ATOM     10  C14 UNL     1      17.210  56.665   4.015  0.00  0.00    +0.253 C 
ATOM     11  O2  UNL     1      16.403  55.700   4.627  0.00  0.00    -0.271 OA
ATOM     12  C15 UNL     1      16.605  57.646   3.018  0.00  0.00    +0.091 C 
ATOM     13  C16 UNL     1      15.471  57.032   2.171  0.00  0.00    +0.035 C 
ATOM     14  C17 UNL     1      16.013  55.896   1.358  0.00  0.00    -0.030 C 
ATOM     15  C18 UNL     1      17.208  56.013   0.764  0.00  0.00    -0.030 C 
ATOM     16  C19 UNL     1      17.998  57.300   0.824  0.00  0.00    +0.032 C 
ATOM     17  C20 UNL     1      17.687  58.214   2.057  0.00  0.00    +0.056 C 
BRANCH   9  18
ATOM     18  C7  UNL     1      19.102  55.885   5.365  0.00  0.00    +0.108 C 
ATOM     19  C8  UNL     1      20.648  56.024   5.343  0.00  0.00    +0.024 C 
ATOM     20  C9  UNL     1      21.363  54.717   5.721  0.00  0.00    +0.002 C 
ATOM     21  C10 UNL     1      21.372  54.437   7.227  0.00  0.00    +0.000 C 
ATOM     22  C11 UNL     1      19.970  54.311   7.836  0.00  0.00    +0.000 C 
ATOM     23  C12 UNL     1      19.273  55.674   7.975  0.00  0.00    +0.002 C 
ATOM     24  C13 UNL     1      18.430  56.073   6.753  0.00  0.00    +0.024 C 
ENDBRANCH   9  18
ENDBRANCH   4   7
BRANCH   1  26
ATOM     25  C1  UNL     1      24.007  62.381   0.882  0.00  0.00    +0.253 C 
ATOM     26  O1  UNL     1      22.618  62.599   1.109  0.00  0.00    -0.468 OA
ENDBRANCH   1  26
BRANCH   6  27
ATOM     27  O3  UNL     1      21.494  60.960  -0.758  0.00  0.00    -0.472 OA
BRANCH  27  28
ATOM     28  C23 UNL     1      21.098  60.133  -1.852  0.00  0.00    +0.206 C 
BRANCH  28  29
ATOM     29  C24 UNL     1      20.418  60.968  -2.940  0.00  0.00    +0.051 C 
BRANCH  29  30
ATOM     30  C25 UNL     1      19.759  60.073  -3.997  0.00  0.00    +0.051 C 
BRANCH  30  31
ATOM     31  C26 UNL     1      19.091  60.904  -5.092  0.00  0.00    +0.206 C 
BRANCH  31  32
ATOM     32  O4  UNL     1      18.611  60.036  -6.118  0.00  0.00    -0.475 OA
BRANCH  32  33
ATOM     33  C27 UNL     1      19.369  59.596  -7.212  0.00  0.00    +0.139 A 
ATOM     34  C28 UNL     1      18.736  58.809  -8.177  0.00  0.00    +0.037 A 
ATOM     35  C29 UNL     1      19.449  58.314  -9.271  0.00  0.00    +0.006 A 
ATOM     36  C30 UNL     1      20.815  58.615  -9.432  0.00  0.00    +0.040 A 
ATOM     37  C32 UNL     1      21.445  59.430  -8.471  0.00  0.00    +0.006 A 
ATOM     38  C33 UNL     1      20.731  59.911  -7.368  0.00  0.00    +0.037 A 
BRANCH  36  39
ATOM     39  C31 UNL     1      21.576  58.077 -10.589  0.00  0.00    +0.208 A 
ATOM     40  N3  UNL     1      22.450  58.777 -11.345  0.00  0.00    -0.106 NA
ATOM     41  N4  UNL     1      22.915  57.924 -12.240  0.00  0.00    -0.021 NA
ATOM     42  N5  UNL     1      22.355  56.741 -12.057  0.00  0.00    -0.021 NA
ATOM     43  N6  UNL     1      21.520  56.802 -11.036  0.00  0.00    -0.106 NA
ENDBRANCH  36  39
ENDBRANCH  32  33
ENDBRANCH  31  32
ENDBRANCH  30  31
ENDBRANCH  29  30
ENDBRANCH  28  29
ENDBRANCH  27  28
ENDBRANCH   6  27
TORSDOF 11
ENDMDL
MODEL 2
REMARK VINA RESULT:      -9.2      2.242      3.518
REMARK  Name = ./data/4u7t_site_bc02/pdb/l1c0.pdb
REMARK  11 active torsions:
REMARK  status: ('A' for Active; 'I' for Inactive)
REMARK    1  A    between atoms: O1_2  and  C2_3
REMARK    2  A    between atoms: C5_6  and  C6_7
REMARK    3  A    between atoms: N2_9  and  C7_10
REMARK    4  A    between atoms: C22_26  and  O3_27
REMARK    5  A    between atoms: O3_27  and  C23_28
REMARK    6  A    between atoms: C23_28  and  C24_29
REMARK    7  A    between atoms: C24_29  and  C25_30
REMARK    8  A    between atoms: C25_30  and  C26_31
REMARK    9  A    between atoms: C26_31  and  O4_32
REMARK   10  A    between atoms: O4_32  and  C27_33
REMARK   11  A    between atoms: C30_36  and  C31_37
REMARK                            x       y       z     vdW  Elec       q    Type
REMARK                         _______ _______ _______ _____ _____    ______ ____
ROOT
ATOM      1  C2  UNL     1      19.606  56.904  -3.591  0.00  0.00    +0.172 A 
ATOM      2  C3  UNL     1      18.866  55.851  -3.030  0.00  0.00    +0.040 A 
ATOM      3  C4  UNL     1      18.525  55.869  -1.677  0.00  0.00    +0.005 A 
ATOM      4  C5  UNL     1      18.904  56.941  -0.850  0.00  0.00    +0.018 A 
ATOM      5  C21 UNL     1      19.634  58.001  -1.421  0.00  0.00    +0.041 A 
ATOM      6  C22 UNL     1      20.005  57.978  -2.782  0.00  0.00    +0.172 A 
ENDROOT
BRANCH   4   7
ATOM      7  C6  UNL     1      18.525  56.933   0.597  0.00  0.00    +0.079 C 
ATOM      8  N1  UNL     1      19.429  56.616   1.477  0.00  0.00    -0.172 NA
ATOM      9  N2  UNL     1      19.200  56.572   2.867  0.00  0.00    -0.222 N 
ATOM     10  C14 UNL     1      18.122  57.111   3.390  0.00  0.00    +0.253 C 
ATOM     11  O2  UNL     1      17.968  57.142   4.780  0.00  0.00    -0.271 OA
ATOM     12  C15 UNL     1      17.086  57.778   2.492  0.00  0.00    +0.091 C 
ATOM     13  C16 UNL     1      15.650  57.686   3.046  0.00  0.00    +0.035 C 
ATOM     14  C17 UNL     1      15.244  56.247   3.150  0.00  0.00    -0.030 C 
ATOM     15  C18 UNL     1      15.562  55.394   2.168  0.00  0.00    -0.030 C 
ATOM     16  C19 UNL     1      16.256  55.860   0.908  0.00  0.00    +0.032 C 
ATOM     17  C20 UNL     1      17.103  57.168   1.061  0.00  0.00    +0.056 C 
BRANCH   9  18
ATOM     18  C7  UNL     1      20.266  55.963   3.691  0.00  0.00    +0.108 C 
ATOM     19  C8  UNL     1      21.000  57.037   4.538  0.00  0.00    +0.024 C 
ATOM     20  C9  UNL     1      22.478  56.690   4.779  0.00  0.00    +0.002 C 
ATOM     21  C10 UNL     1      22.689  55.634   5.868  0.00  0.00    +0.000 C 
ATOM     22  C11 UNL     1      22.012  54.292   5.561  0.00  0.00    +0.000 C 
ATOM     23  C12 UNL     1      20.488  54.354   5.752  0.00  0.00    +0.002 C 
ATOM     24  C13 UNL     1      19.715  54.746   4.483  0.00  0.00    +0.024 C 
ENDBRANCH   9  18
ENDBRANCH   4   7
BRANCH   1  26
ATOM     25  C1  UNL     1      19.640  55.896  -5.880  0.00  0.00    +0.253 C 
ATOM     26  O1  UNL     1      19.967  56.922  -4.947  0.00  0.00    -0.468 OA
ENDBRANCH   1  26
BRANCH   6  27
ATOM     27  O3  UNL     1      20.767  59.000  -3.374  0.00  0.00    -0.472 OA
BRANCH  27  28
ATOM     28  C23 UNL     1      21.051  60.272  -2.792  0.00  0.00    +0.206 C 
BRANCH  28  29
ATOM     29  C24 UNL     1      20.784  61.396  -3.797  0.00  0.00    +0.051 C 
BRANCH  29  30
ATOM     30  C25 UNL     1      19.281  61.644  -3.970  0.00  0.00    +0.051 C 
BRANCH  30  31
ATOM     31  C26 UNL     1      18.875  61.611  -5.443  0.00  0.00    +0.206 C 
BRANCH  31  32
ATOM     32  O4  UNL     1      18.741  60.255  -5.866  0.00  0.00    -0.475 OA
BRANCH  32  33
ATOM     33  C27 UNL     1      19.355  59.707  -7.001  0.00  0.00    +0.139 A 
ATOM     34  C28 UNL     1      20.716  59.951  -7.195  0.00  0.00    +0.037 A 
ATOM     35  C29 UNL     1      21.374  59.459  -8.324  0.00  0.00    +0.006 A 
ATOM     36  C30 UNL     1      20.680  58.691  -9.279  0.00  0.00    +0.040 A 
ATOM     37  C32 UNL     1      19.313  58.425  -9.068  0.00  0.00    +0.006 A 
ATOM     38  C33 UNL     1      18.654  58.933  -7.943  0.00  0.00    +0.037 A 
BRANCH  36  39
ATOM     39  C31 UNL     1      21.377  58.179 -10.488  0.00  0.00    +0.208 A 
ATOM     40  N3  UNL     1      22.279  58.867 -11.221  0.00  0.00    -0.106 NA
ATOM     41  N4  UNL     1      22.664  58.043 -12.181  0.00  0.00    -0.021 NA
ATOM     42  N5  UNL     1      22.029  56.891 -12.057  0.00  0.00    -0.021 NA
ATOM     43  N6  UNL     1      21.223  56.942 -11.012  0.00  0.00    -0.106 NA
ENDBRANCH  36  39
ENDBRANCH  32  33
ENDBRANCH  31  32
ENDBRANCH  30  31
ENDBRANCH  29  30
ENDBRANCH  28  29
ENDBRANCH  27  28
ENDBRANCH   6  27
TORSDOF 11
ENDMDL
MODEL 3
REMARK VINA RESULT:      -9.0      4.740      7.041
REMARK  Name = ./data/4u7t_site_bc02/pdb/l1c0.pdb
REMARK  11 active torsions:
REMARK  status: ('A' for Active; 'I' for Inactive)
REMARK    1  A    between atoms: O1_2  and  C2_3
REMARK    2  A    between atoms: C5_6  and  C6_7
REMARK    3  A    between atoms: N2_9  and  C7_10
REMARK    4  A    between atoms: C22_26  and  O3_27
REMARK    5  A    between atoms: O3_27  and  C23_28
REMARK    6  A    between atoms: C23_28  and  C24_29
REMARK    7  A    between atoms: C24_29  and  C25_30
REMARK    8  A    between atoms: C25_30  and  C26_31
REMARK    9  A    between atoms: C26_31  and  O4_32
REMARK   10  A    between atoms: O4_32  and  C27_33
REMARK   11  A    between atoms: C30_36  and  C31_37
REMARK                            x       y       z     vdW  Elec       q    Type
REMARK                         _______ _______ _______ _____ _____    ______ ____
ROOT
ATOM      1  C2  UNL     1      19.259  55.360  -3.473  0.00  0.00    +0.172 A 
ATOM      2  C3  UNL     1      18.752  54.421  -2.559  0.00  0.00    +0.040 A 
ATOM      3  C4  UNL     1      18.406  54.811  -1.265  0.00  0.00    +0.005 A 
ATOM      4  C5  UNL     1      18.548  56.146  -0.849  0.00  0.00    +0.018 A 
ATOM      5  C21 UNL     1      19.044  57.086  -1.774  0.00  0.00    +0.041 A 
ATOM      6  C22 UNL     1      19.420  56.695  -3.077  0.00  0.00    +0.172 A 
ENDROOT
BRANCH   4   7
ATOM      7  C6  UNL     1      18.170  56.535   0.544  0.00  0.00    +0.079 C 
ATOM      8  N1  UNL     1      19.081  56.500   1.471  0.00  0.00    -0.172 NA
ATOM      9  N2  UNL     1      18.854  56.841   2.820  0.00  0.00    -0.222 N 
ATOM     10  C14 UNL     1      17.762  57.478   3.179  0.00  0.00    +0.253 C 
ATOM     11  O2  UNL     1      17.608  57.894   4.506  0.00  0.00    -0.271 OA
ATOM     12  C15 UNL     1      16.710  57.841   2.138  0.00  0.00    +0.091 C 
ATOM     13  C16 UNL     1      15.276  57.872   2.706  0.00  0.00    +0.035 C 
ATOM     14  C17 UNL     1      14.907  56.511   3.211  0.00  0.00    -0.030 C 
ATOM     15  C18 UNL     1      15.247  55.425   2.505  0.00  0.00    -0.030 C 
ATOM     16  C19 UNL     1      15.928  55.537   1.160  0.00  0.00    +0.032 C 
ATOM     17  C20 UNL     1      16.742  56.855   0.935  0.00  0.00    +0.056 C 
BRANCH   9  18
ATOM     18  C7  UNL     1      19.936  56.513   3.773  0.00  0.00    +0.108 C 
ATOM     19  C8  UNL     1      19.635  55.189   4.525  0.00  0.00    +0.024 C 
ATOM     20  C9  UNL     1      20.210  55.175   5.950  0.00  0.00    +0.002 C 
ATOM     21  C10 UNL     1      21.717  54.905   6.000  0.00  0.00    +0.000 C 
ATOM     22  C11 UNL     1      22.553  55.947   5.246  0.00  0.00    +0.000 C 
ATOM     23  C12 UNL     1      22.454  55.777   3.721  0.00  0.00    +0.002 C 
ATOM     24  C13 UNL     1      21.320  56.589   3.074  0.00  0.00    +0.024 C 
ENDBRANCH   9  18
ENDBRANCH   4   7
BRANCH   1  26
ATOM     25  C1  UNL     1      18.706  54.517  -5.762  0.00  0.00    +0.253 C 
ATOM     26  O1  UNL     1      19.618  55.006  -4.783  0.00  0.00    -0.468 OA
ENDBRANCH   1  26
BRANCH   6  27
ATOM     27  O3  UNL     1      19.954  57.599  -4.011  0.00  0.00    -0.472 OA
BRANCH  27  28
ATOM     28  C23 UNL     1      19.596  57.683  -5.390  0.00  0.00    +0.206 C 
BRANCH  28  29
ATOM     29  C24 UNL     1      18.859  58.994  -5.677  0.00  0.00    +0.051 C 
BRANCH  29  30
ATOM     30  C25 UNL     1      19.221  60.072  -4.649  0.00  0.00    +0.051 C 
BRANCH  30  31
ATOM     31  C26 UNL     1      20.311  61.004  -5.177  0.00  0.00    +0.206 C 
BRANCH  31  32
ATOM     32  O4  UNL     1      21.471  60.891  -4.353  0.00  0.00    -0.475 OA
BRANCH  32  33
ATOM     33  C27 UNL     1      21.501  61.148  -2.976  0.00  0.00    +0.139 A 
ATOM     34  C28 UNL     1      21.210  60.098  -2.103  0.00  0.00    +0.037 A 
ATOM     35  C29 UNL     1      21.192  60.303  -0.723  0.00  0.00    +0.006 A 
ATOM     36  C30 UNL     1      21.486  61.570  -0.183  0.00  0.00    +0.040 A 
ATOM     37  C32 UNL     1      21.805  62.623  -1.064  0.00  0.00    +0.006 A 
ATOM     38  C33 UNL     1      21.806  62.416  -2.447  0.00  0.00    +0.037 A 
BRANCH  36  39
ATOM     39  C31 UNL     1      21.454  61.792   1.286  0.00  0.00    +0.208 A 
ATOM     40  N3  UNL     1      22.170  62.725   1.952  0.00  0.00    -0.106 NA
ATOM     41  N4  UNL     1      21.830  62.598   3.223  0.00  0.00    -0.021 NA
ATOM     42  N5  UNL     1      20.943  61.626   3.350  0.00  0.00    -0.021 NA
ATOM     43  N6  UNL     1      20.686  61.107   2.163  0.00  0.00    -0.106 NA
ENDBRANCH  36  39
ENDBRANCH  32  33
ENDBRANCH  31  32
ENDBRANCH  30  31
ENDBRANCH  29  30
ENDBRANCH  28  29
ENDBRANCH  27  28
ENDBRANCH   6  27
TORSDOF 11
ENDMDL
MODEL 4
REMARK VINA RESULT:      -8.3      2.424      4.491
REMARK  Name = ./data/4u7t_site_bc02/pdb/l1c0.pdb
REMARK  11 active torsions:
REMARK  status: ('A' for Active; 'I' for Inactive)
REMARK    1  A    between atoms: O1_2  and  C2_3
REMARK    2  A    between atoms: C5_6  and  C6_7
REMARK    3  A    between atoms: N2_9  and  C7_10
REMARK    4  A    between atoms: C22_26  and  O3_27
REMARK    5  A    between atoms: O3_27  and  C23_28
REMARK    6  A    between atoms: C23_28  and  C24_29
REMARK    7  A    between atoms: C24_29  and  C25_30
REMARK    8  A    between atoms: C25_30  and  C26_31
REMARK    9  A    between atoms: C26_31  and  O4_32
REMARK   10  A    between atoms: O4_32  and  C27_33
REMARK   11  A    between atoms: C30_36  and  C31_37
REMARK                            x       y       z     vdW  Elec       q    Type
REMARK                         _______ _______ _______ _____ _____    ______ ____
ROOT
ATOM      1  C2  UNL     1      21.538  61.579   1.306  0.00  0.00    +0.172 A 
ATOM      2  C3  UNL     1      20.973  61.058   2.481  0.00  0.00    +0.040 A 
ATOM      3  C4  UNL     1      20.205  59.894   2.440  0.00  0.00    +0.005 A 
ATOM      4  C5  UNL     1      19.985  59.215   1.229  0.00  0.00    +0.018 A 
ATOM      5  C21 UNL     1      20.565  59.734   0.056  0.00  0.00    +0.041 A 
ATOM      6  C22 UNL     1      21.322  60.925   0.085  0.00  0.00    +0.172 A 
ENDROOT
BRANCH   4   7
ATOM      7  C6  UNL     1      19.156  57.970   1.215  0.00  0.00    +0.079 C 
ATOM      8  N1  UNL     1      19.179  57.218   0.155  0.00  0.00    -0.172 NA
ATOM      9  N2  UNL     1      18.446  56.021   0.015  0.00  0.00    -0.222 N 
ATOM     10  C14 UNL     1      17.893  55.445   1.059  0.00  0.00    +0.253 C 
ATOM     11  O2  UNL     1      17.258  54.207   0.910  0.00  0.00    -0.271 OA
ATOM     12  C15 UNL     1      18.020  56.077   2.440  0.00  0.00    +0.091 C 
ATOM     13  C16 UNL     1      16.813  55.787   3.355  0.00  0.00    +0.035 C 
ATOM     14  C17 UNL     1      15.572  56.368   2.747  0.00  0.00    -0.030 C 
ATOM     15  C18 UNL     1      15.615  57.579   2.177  0.00  0.00    -0.030 C 
ATOM     16  C19 UNL     1      16.870  58.421   2.200  0.00  0.00    +0.032 C 
ATOM     17  C20 UNL     1      18.207  57.617   2.341  0.00  0.00    +0.056 C 
BRANCH   9  18
ATOM     18  C7  UNL     1      18.406  55.427  -1.338  0.00  0.00    +0.108 C 
ATOM     19  C8  UNL     1      16.949  55.343  -1.868  0.00  0.00    +0.024 C 
ATOM     20  C9  UNL     1      16.729  54.141  -2.801  0.00  0.00    +0.002 C 
ATOM     21  C10 UNL     1      17.271  54.358  -4.217  0.00  0.00    +0.000 C 
ATOM     22  C11 UNL     1      18.781  54.623  -4.262  0.00  0.00    +0.000 C 
ATOM     23  C12 UNL     1      19.136  56.041  -3.782  0.00  0.00    +0.002 C 
ATOM     24  C13 UNL     1      19.421  56.137  -2.275  0.00  0.00    +0.024 C 
ENDBRANCH   9  18
ENDBRANCH   4   7
BRANCH   1  26
ATOM     25  C1  UNL     1      21.798  64.059   1.497  0.00  0.00    +0.253 C 
ATOM     26  O1  UNL     1      22.317  62.746   1.307  0.00  0.00    -0.468 OA
ENDBRANCH   1  26
BRANCH   6  27
ATOM     27  O3  UNL     1      21.881  61.491  -1.074  0.00  0.00    -0.472 OA
BRANCH  27  28
ATOM     28  C23 UNL     1      21.426  62.676  -1.727  0.00  0.00    +0.206 C 
BRANCH  28  29
ATOM     29  C24 UNL     1      20.660  62.327  -3.005  0.00  0.00    +0.051 C 
BRANCH  29  30
ATOM     30  C25 UNL     1      21.115  60.978  -3.576  0.00  0.00    +0.051 C 
BRANCH  30  31
ATOM     31  C26 UNL     1      19.975  60.269  -4.307  0.00  0.00    +0.206 C 
BRANCH  31  32
ATOM     32  O4  UNL     1      19.967  60.674  -5.675  0.00  0.00    -0.475 OA
BRANCH  32  33
ATOM     33  C27 UNL     1      20.261  59.836  -6.759  0.00  0.00    +0.139 A 
ATOM     34  C28 UNL     1      20.645  60.429  -7.964  0.00  0.00    +0.037 A 
ATOM     35  C29 UNL     1      20.919  59.647  -9.087  0.00  0.00    +0.006 A 
ATOM     36  C30 UNL     1      20.831  58.242  -9.021  0.00  0.00    +0.040 A 
ATOM     37  C32 UNL     1      20.468  57.645  -7.797  0.00  0.00    +0.006 A 
ATOM     38  C33 UNL     1      20.180  58.434  -6.679  0.00  0.00    +0.037 A 
BRANCH  36  39
ATOM     39  C31 UNL     1      21.108  57.410 -10.220  0.00  0.00    +0.208 A 
ATOM     40  N3  UNL     1      21.847  57.794 -11.285  0.00  0.00    -0.106 NA
ATOM     41  N4  UNL     1      21.860  56.757 -12.105  0.00  0.00    -0.021 NA
ATOM     42  N5  UNL     1      21.158  55.768 -11.579  0.00  0.00    -0.021 NA
ATOM     43  N6  UNL     1      20.680  56.141 -10.407  0.00  0.00    -0.106 NA
ENDBRANCH  36  39
ENDBRANCH  32  33
ENDBRANCH  31  32
ENDBRANCH  30  31
ENDBRANCH  29  30
ENDBRANCH  28  29
ENDBRANCH  27  28
ENDBRANCH   6  27
TORSDOF 11
ENDMDL
MODEL 5
REMARK VINA RESULT:      -7.5      2.209      4.283
REMARK  Name = ./data/4u7t_site_bc02/pdb/l1c0.pdb
REMARK  11 active torsions:
REMARK  status: ('A' for Active; 'I' for Inactive)
REMARK    1  A    between atoms: O1_2  and  C2_3
REMARK    2  A    between atoms: C5_6  and  C6_7
REMARK    3  A    between atoms: N2_9  and  C7_10
REMARK    4  A    between atoms: C22_26  and  O3_27
REMARK    5  A    between atoms: O3_27  and  C23_28
REMARK    6  A    between atoms: C23_28  and  C24_29
REMARK    7  A    between atoms: C24_29  and  C25_30
REMARK    8  A    between atoms: C25_30  and  C26_31
REMARK    9  A    between atoms: C26_31  and  O4_32
REMARK   10  A    between atoms: O4_32  and  C27_33
REMARK   11  A    between atoms: C30_36  and  C31_37
REMARK                            x       y       z     vdW  Elec       q    Type
REMARK                         _______ _______ _______ _____ _____    ______ ____
ROOT
ATOM      1  C2  UNL     1      19.947  57.907  -2.506  0.00  0.00    +0.172 A 
ATOM      2  C3  UNL     1      19.088  56.882  -2.076  0.00  0.00    +0.040 A 
ATOM      3  C4  UNL     1      18.852  56.681  -0.716  0.00  0.00    +0.005 A 
ATOM      4  C5  UNL     1      19.460  57.500   0.252  0.00  0.00    +0.018 A 
ATOM      5  C21 UNL     1      20.310  58.535  -0.185  0.00  0.00    +0.041 A 
ATOM      6  C22 UNL     1      20.573  58.728  -1.558  0.00  0.00    +0.172 A 
ENDROOT
BRANCH   4   7
ATOM      7  C6  UNL     1      19.190  57.261   1.703  0.00  0.00    +0.079 C 
ATOM      8  N1  UNL     1      18.136  56.576   2.036  0.00  0.00    -0.172 NA
ATOM      9  N2  UNL     1      17.770  56.281   3.366  0.00  0.00    -0.222 N 
ATOM     10  C14 UNL     1      18.620  56.455   4.353  0.00  0.00    +0.253 C 
ATOM     11  O2  UNL     1      18.267  56.060   5.648  0.00  0.00    -0.271 OA
ATOM     12  C15 UNL     1      20.016  57.000   4.075  0.00  0.00    +0.091 C 
ATOM     13  C16 UNL     1      20.593  57.821   5.246  0.00  0.00    +0.035 C 
ATOM     14  C17 UNL     1      19.724  59.016   5.497  0.00  0.00    -0.030 C 
ATOM     15  C18 UNL     1      19.235  59.711   4.462  0.00  0.00    -0.030 C 
ATOM     16  C19 UNL     1      19.602  59.372   3.036  0.00  0.00    +0.032 C 
ATOM     17  C20 UNL     1      20.032  57.885   2.796  0.00  0.00    +0.056 C 
BRANCH   9  18
ATOM     18  C7  UNL     1      16.424  55.703   3.565  0.00  0.00    +0.108 C 
ATOM     19  C8  UNL     1      15.428  56.773   4.086  0.00  0.00    +0.024 C 
ATOM     20  C9  UNL     1      14.344  56.176   4.999  0.00  0.00    +0.002 C 
ATOM     21  C10 UNL     1      13.229  55.456   4.235  0.00  0.00    +0.000 C 
ATOM     22  C11 UNL     1      13.727  54.277   3.390  0.00  0.00    +0.000 C 
ATOM     23  C12 UNL     1      14.457  54.742   2.119  0.00  0.00    +0.002 C 
ATOM     24  C13 UNL     1      15.972  54.924   2.300  0.00  0.00    +0.024 C 
ENDBRANCH   9  18
ENDBRANCH   4   7
BRANCH   1  26
ATOM     25  C1  UNL     1      20.133  57.145  -4.881  0.00  0.00    +0.253 C 
ATOM     26  O1  UNL     1      20.208  58.140  -3.865  0.00  0.00    -0.468 OA
ENDBRANCH   1  26
BRANCH   6  27
ATOM     27  O3  UNL     1      21.446  59.726  -2.025  0.00  0.00    -0.472 OA
BRANCH  27  28
ATOM     28  C23 UNL     1      21.257  60.519  -3.196  0.00  0.00    +0.206 C 
BRANCH  28  29
ATOM     29  C24 UNL     1      20.136  61.540  -2.980  0.00  0.00    +0.051 C 
BRANCH  29  30
ATOM     30  C25 UNL     1      20.221  62.684  -3.998  0.00  0.00    +0.051 C 
BRANCH  30  31
ATOM     31  C26 UNL     1      18.998  62.709  -4.912  0.00  0.00    +0.206 C 
BRANCH  31  32
ATOM     32  O4  UNL     1      18.608  61.371  -5.219  0.00  0.00    -0.475 OA
BRANCH  32  33
ATOM     33  C27 UNL     1      19.180  60.583  -6.227  0.00  0.00    +0.139 A 
ATOM     34  C28 UNL     1      18.362  59.662  -6.886  0.00  0.00    +0.037 A 
ATOM     35  C29 UNL     1      18.883  58.826  -7.875  0.00  0.00    +0.006 A 
ATOM     36  C30 UNL     1      20.241  58.909  -8.241  0.00  0.00    +0.040 A 
ATOM     37  C32 UNL     1      21.058  59.857  -7.593  0.00  0.00    +0.006 A 
ATOM     38  C33 UNL     1      20.535  60.682  -6.591  0.00  0.00    +0.037 A 
BRANCH  36  39
ATOM     39  C31 UNL     1      20.799  58.011  -9.284  0.00  0.00    +0.208 A 
ATOM     40  N3  UNL     1      21.378  56.812  -9.056  0.00  0.00    -0.106 NA
ATOM     41  N4  UNL     1      21.710  56.341 -10.246  0.00  0.00    -0.021 NA
ATOM     42  N5  UNL     1      21.358  57.208 -11.179  0.00  0.00    -0.021 NA
ATOM     43  N6  UNL     1      20.786  58.256 -10.614  0.00  0.00    -0.106 NA
ENDBRANCH  36  39
ENDBRANCH  32  33
ENDBRANCH  31  32
ENDBRANCH  30  31
ENDBRANCH  29  30
ENDBRANCH  28  29
ENDBRANCH  27  28
ENDBRANCH   6  27
TORSDOF 11
ENDMDL
MODEL 6
REMARK VINA RESULT:      -7.2      2.242      4.501
REMARK  Name = ./data/4u7t_site_bc02/pdb/l1c0.pdb
REMARK  11 active torsions:
REMARK  status: ('A' for Active; 'I' for Inactive)
REMARK    1  A    between atoms: O1_2  and  C2_3
REMARK    2  A    between atoms: C5_6  and  C6_7
REMARK    3  A    between atoms: N2_9  and  C7_10
REMARK    4  A    between atoms: C22_26  and  O3_27
REMARK    5  A    between atoms: O3_27  and  C23_28
REMARK    6  A    between atoms: C23_28  and  C24_29
REMARK    7  A    between atoms: C24_29  and  C25_30
REMARK    8  A    between atoms: C25_30  and  C26_31
REMARK    9  A    between atoms: C26_31  and  O4_32
REMARK   10  A    between atoms: O4_32  and  C27_33
REMARK   11  A    between atoms: C30_36  and  C31_37
REMARK                            x       y       z     vdW  Elec       q    Type
REMARK                         _______ _______ _______ _____ _____    ______ ____
ROOT
ATOM      1  C2  UNL     1      19.755  57.870  -1.736  0.00  0.00    +0.172 A 
ATOM      2  C3  UNL     1      18.755  56.908  -1.523  0.00  0.00    +0.040 A 
ATOM      3  C4  UNL     1      18.491  56.436  -0.237  0.00  0.00    +0.005 A 
ATOM      4  C5  UNL     1      19.212  56.914   0.871  0.00  0.00    +0.018 A 
ATOM      5  C21 UNL     1      20.205  57.889   0.653  0.00  0.00    +0.041 A 
ATOM      6  C22 UNL     1      20.495  58.353  -0.647  0.00  0.00    +0.172 A 
ENDROOT
BRANCH   4   7
ATOM      7  C6  UNL     1      18.908  56.389   2.238  0.00  0.00    +0.079 C 
ATOM      8  N1  UNL     1      17.721  56.583   2.731  0.00  0.00    -0.172 NA
ATOM      9  N2  UNL     1      17.309  56.140   4.005  0.00  0.00    -0.222 N 
ATOM     10  C14 UNL     1      18.021  55.262   4.675  0.00  0.00    +0.253 C 
ATOM     11  O2  UNL     1      17.539  54.764   5.891  0.00  0.00    -0.271 OA
ATOM     12  C15 UNL     1      19.321  54.724   4.091  0.00  0.00    +0.091 C 
ATOM     13  C16 UNL     1      20.364  54.352   5.165  0.00  0.00    +0.035 C 
ATOM     14  C17 UNL     1      20.736  55.575   5.947  0.00  0.00    -0.030 C 
ATOM     15  C18 UNL     1      20.921  56.739   5.312  0.00  0.00    -0.030 C 
ATOM     16  C19 UNL     1      20.842  56.841   3.806  0.00  0.00    +0.032 C 
ATOM     17  C20 UNL     1      19.965  55.745   3.110  0.00  0.00    +0.056 C 
BRANCH   9  18
ATOM     18  C7  UNL     1      16.012  56.655   4.494  0.00  0.00    +0.108 C 
ATOM     19  C8  UNL     1      16.210  57.613   5.699  0.00  0.00    +0.024 C 
ATOM     20  C9  UNL     1      15.034  57.567   6.688  0.00  0.00    +0.002 C 
ATOM     21  C10 UNL     1      13.807  58.355   6.217  0.00  0.00    +0.000 C 
ATOM     22  C11 UNL     1      13.228  57.850   4.889  0.00  0.00    +0.000 C 
ATOM     23  C12 UNL     1      14.095  58.255   3.686  0.00  0.00    +0.002 C 
ATOM     24  C13 UNL     1      15.172  57.222   3.317  0.00  0.00    +0.024 C 
ENDBRANCH   9  18
ENDBRANCH   4   7
BRANCH   1  26
ATOM     25  C1  UNL     1      19.981  57.603  -4.213  0.00  0.00    +0.253 C 
ATOM     26  O1  UNL     1      20.049  58.370  -3.015  0.00  0.00    -0.468 OA
ENDBRANCH   1  26
BRANCH   6  27
ATOM     27  O3  UNL     1      21.505  59.295  -0.904  0.00  0.00    -0.472 OA
BRANCH  27  28
ATOM     28  C23 UNL     1      21.496  60.264  -1.952  0.00  0.00    +0.206 C 
BRANCH  28  29
ATOM     29  C24 UNL     1      20.732  61.518  -1.521  0.00  0.00    +0.051 C 
BRANCH  29  30
ATOM     30  C25 UNL     1      21.244  62.763  -2.256  0.00  0.00    +0.051 C 
BRANCH  30  31
ATOM     31  C26 UNL     1      20.134  63.425  -3.072  0.00  0.00    +0.206 C 
BRANCH  31  32
ATOM     32  O4  UNL     1      19.285  62.418  -3.621  0.00  0.00    -0.475 OA
BRANCH  32  33
ATOM     33  C27 UNL     1      19.576  61.663  -4.765  0.00  0.00    +0.139 A 
ATOM     34  C28 UNL     1      18.549  60.905  -5.332  0.00  0.00    +0.037 A 
ATOM     35  C29 UNL     1      18.788  60.107  -6.452  0.00  0.00    +0.006 A 
ATOM     36  C30 UNL     1      20.066  60.066  -7.043  0.00  0.00    +0.040 A 
ATOM     37  C32 UNL     1      21.094  60.851  -6.484  0.00  0.00    +0.006 A 
ATOM     38  C33 UNL     1      20.854  61.637  -5.352  0.00  0.00    +0.037 A 
BRANCH  36  39
ATOM     39  C31 UNL     1      20.325  59.206  -8.227  0.00  0.00    +0.208 A 
ATOM     40  N3  UNL     1      19.377  58.609  -8.982  0.00  0.00    -0.106 NA
ATOM     41  N4  UNL     1      20.029  57.966  -9.935  0.00  0.00    -0.021 NA
ATOM     42  N5  UNL     1      21.329  58.149  -9.783  0.00  0.00    -0.021 NA
ATOM     43  N6  UNL     1      21.546  58.918  -8.732  0.00  0.00    -0.106 NA
ENDBRANCH  36  39
ENDBRANCH  32  33
ENDBRANCH  31  32
ENDBRANCH  30  31
ENDBRANCH  29  30
ENDBRANCH  28  29
ENDBRANCH  27  28
ENDBRANCH   6  27
TORSDOF 11
ENDMDL
