MODEL 1
REMARK VINA RESULT:      -6.0      0.000      0.000
REMARK  Name = ./data/4u7t_site_bc02/pdb/l0c2.pdb
REMARK  11 active torsions:
REMARK  status: ('A' for Active; 'I' for Inactive)
REMARK    1  A    between atoms: O1_2  and  C2_3
REMARK    2  A    between atoms: C5_6  and  C6_7
REMARK    3  A    between atoms: N2_9  and  C7_10
REMARK    4  A    between atoms: C19_23  and  O3_24
REMARK    5  A    between atoms: O3_24  and  C20_25
REMARK    6  A    between atoms: C20_25  and  C21_26
REMARK    7  A    between atoms: C21_26  and  C22_27
REMARK    8  A    between atoms: C22_27  and  C23_28
REMARK    9  A    between atoms: C23_28  and  O4_29
REMARK   10  A    between atoms: O4_29  and  C24_30
REMARK   11  A    between atoms: C27_33  and  C28_34
REMARK                            x       y       z     vdW  Elec       q    Type
REMARK                         _______ _______ _______ _____ _____    ______ ____
ROOT
ATOM      1  C2  UNL     1      20.060  58.483  -5.587  0.00  0.00    +0.172 A 
ATOM      2  C3  UNL     1      20.328  59.676  -6.278  0.00  0.00    +0.040 A 
ATOM      3  C4  UNL     1      20.565  60.862  -5.582  0.00  0.00    +0.005 A 
ATOM      4  C5  UNL     1      20.532  60.891  -4.178  0.00  0.00    +0.019 A 
ATOM      5  C18 UNL     1      20.259  59.691  -3.491  0.00  0.00    +0.041 A 
ATOM      6  C19 UNL     1      20.033  58.488  -4.186  0.00  0.00    +0.172 A 
ENDROOT
BRANCH   4   7
ATOM      7  C6  UNL     1      20.781  62.142  -3.398  0.00  0.00    +0.086 C 
ATOM      8  N1  UNL     1      20.386  63.294  -3.841  0.00  0.00    -0.171 NA
ATOM      9  N2  UNL     1      20.703  64.295  -2.925  0.00  0.00    -0.222 N 
ATOM     10  C14 UNL     1      21.285  63.780  -1.891  0.00  0.00    +0.257 C 
ATOM     11  O2  UNL     1      21.695  64.528  -0.789  0.00  0.00    -0.270 OA
ATOM     12  C15 UNL     1      21.453  62.296  -2.041  0.00  0.00    +0.110 C 
ATOM     13  C16 UNL     1      20.696  61.569  -0.918  0.00  0.00    +0.015 C 
ATOM     14  C17 UNL     1      22.953  61.955  -2.073  0.00  0.00    +0.015 C 
BRANCH   9  15
ATOM     15  C7  UNL     1      20.356  65.707  -3.143  0.00  0.00    +0.108 C 
ATOM     16  C8  UNL     1      20.976  66.197  -4.472  0.00  0.00    +0.024 C 
ATOM     17  C9  UNL     1      21.057  67.724  -4.590  0.00  0.00    +0.002 C 
ATOM     18  C10 UNL     1      19.695  68.426  -4.479  0.00  0.00    +0.000 C 
ATOM     19  C11 UNL     1      19.188  68.485  -3.029  0.00  0.00    +0.000 C 
ATOM     20  C12 UNL     1      18.352  67.266  -2.596  0.00  0.00    +0.002 C 
ATOM     21  C13 UNL     1      18.821  65.896  -3.122  0.00  0.00    +0.024 C 
ENDBRANCH   9  15
ENDBRANCH   4   7
BRANCH   1  23
ATOM     22  C1  UNL     1      19.504  57.162  -7.640  0.00  0.00    +0.253 C 
ATOM     23  O1  UNL     1      19.820  57.272  -6.255  0.00  0.00    -0.468 OA
ENDBRANCH   1  23
BRANCH   6  24
ATOM     24  O3  UNL     1      19.778  57.272  -3.527  0.00  0.00    -0.472 OA
BRANCH  24  25
ATOM     25  C20 UNL     1      19.181  57.130  -2.237  0.00  0.00    +0.206 C 
BRANCH  25  26
ATOM     26  C21 UNL     1      19.967  57.929  -1.187  0.00  0.00    +0.051 C 
BRANCH  26  27
ATOM     27  C22 UNL     1      19.639  57.491   0.248  0.00  0.00    +0.051 C 
BRANCH  27  28
ATOM     28  C23 UNL     1      19.564  58.676   1.220  0.00  0.00    +0.206 C 
BRANCH  28  29
ATOM     29  O4  UNL     1      19.348  58.212   2.553  0.00  0.00    -0.475 OA
BRANCH  29  30
ATOM     30  C24 UNL     1      18.105  58.156   3.204  0.00  0.00    +0.139 A 
ATOM     31  C25 UNL     1      17.903  58.647   4.509  0.00  0.00    +0.037 A 
ATOM     32  C26 UNL     1      16.641  58.569   5.106  0.00  0.00    +0.006 A 
ATOM     33  C27 UNL     1      15.555  58.003   4.414  0.00  0.00    +0.040 A 
ATOM     34  C29 UNL     1      15.763  57.515   3.113  0.00  0.00    +0.006 A 
ATOM     35  C30 UNL     1      17.025  57.593   2.518  0.00  0.00    +0.037 A 
BRANCH  33  36
ATOM     36  C28 UNL     1      14.214  57.928   5.046  0.00  0.00    +0.208 A 
ATOM     37  N3  UNL     1      13.041  57.855   4.381  0.00  0.00    -0.106 NA
ATOM     38  N4  UNL     1      12.102  57.810   5.310  0.00  0.00    -0.021 NA
ATOM     39  N5  UNL     1      12.663  57.851   6.506  0.00  0.00    -0.021 NA
ATOM     40  N6  UNL     1      13.977  57.926   6.376  0.00  0.00    -0.106 NA
ENDBRANCH  33  36
ENDBRANCH  29  30
ENDBRANCH  28  29
ENDBRANCH  27  28
ENDBRANCH  26  27
ENDBRANCH  25  26
ENDBRANCH  24  25
ENDBRANCH   6  24
TORSDOF 11
ENDMDL
MODEL 2
REMARK VINA RESULT:      -4.5      1.479      2.323
REMARK  Name = ./data/4u7t_site_bc02/pdb/l0c2.pdb
REMARK  11 active torsions:
REMARK  status: ('A' for Active; 'I' for Inactive)
REMARK    1  A    between atoms: O1_2  and  C2_3
REMARK    2  A    between atoms: C5_6  and  C6_7
REMARK    3  A    between atoms: N2_9  and  C7_10
REMARK    4  A    between atoms: C19_23  and  O3_24
REMARK    5  A    between atoms: O3_24  and  C20_25
REMARK    6  A    between atoms: C20_25  and  C21_26
REMARK    7  A    between atoms: C21_26  and  C22_27
REMARK    8  A    between atoms: C22_27  and  C23_28
REMARK    9  A    between atoms: C23_28  and  O4_29
REMARK   10  A    between atoms: O4_29  and  C24_30
REMARK   11  A    between atoms: C27_33  and  C28_34
REMARK                            x       y       z     vdW  Elec       q    Type
REMARK                         _______ _______ _______ _____ _____    ______ ____
ROOT
ATOM      1  C2  UNL     1      20.049  59.969  -5.148  0.00  0.00    +0.172 A 
ATOM      2  C3  UNL     1      19.600  60.928  -6.072  0.00  0.00    +0.040 A 
ATOM      3  C4  UNL     1      19.507  62.273  -5.709  0.00  0.00    +0.005 A 
ATOM      4  C5  UNL     1      19.849  62.695  -4.413  0.00  0.00    +0.019 A 
ATOM      5  C18 UNL     1      20.294  61.726  -3.491  0.00  0.00    +0.041 A 
ATOM      6  C19 UNL     1      20.405  60.370  -3.854  0.00  0.00    +0.172 A 
ENDROOT
BRANCH   4   7
ATOM      7  C6  UNL     1      19.762  64.125  -3.989  0.00  0.00    +0.086 C 
ATOM      8  N1  UNL     1      20.046  65.084  -4.812  0.00  0.00    -0.171 NA
ATOM      9  N2  UNL     1      19.858  66.319  -4.195  0.00  0.00    -0.222 N 
ATOM     10  C14 UNL     1      19.438  66.148  -2.984  0.00  0.00    +0.257 C 
ATOM     11  O2  UNL     1      19.130  67.200  -2.123  0.00  0.00    -0.270 OA
ATOM     12  C15 UNL     1      19.330  64.690  -2.643  0.00  0.00    +0.110 C 
ATOM     13  C16 UNL     1      17.874  64.342  -2.293  0.00  0.00    +0.015 C 
ATOM     14  C17 UNL     1      20.317  64.359  -1.509  0.00  0.00    +0.015 C 
BRANCH   9  15
ATOM     15  C7  UNL     1      20.078  67.594  -4.892  0.00  0.00    +0.108 C 
ATOM     16  C8  UNL     1      19.469  68.751  -4.068  0.00  0.00    +0.024 C 
ATOM     17  C9  UNL     1      19.249  70.036  -4.876  0.00  0.00    +0.002 C 
ATOM     18  C10 UNL     1      20.533  70.600  -5.505  0.00  0.00    +0.000 C 
ATOM     19  C11 UNL     1      20.972  69.802  -6.743  0.00  0.00    +0.000 C 
ATOM     20  C12 UNL     1      21.901  68.612  -6.438  0.00  0.00    +0.002 C 
ATOM     21  C13 UNL     1      21.586  67.811  -5.160  0.00  0.00    +0.024 C 
ENDBRANCH   9  15
ENDBRANCH   4   7
BRANCH   1  23
ATOM     22  C1  UNL     1      19.272  57.918  -6.357  0.00  0.00    +0.253 C 
ATOM     23  O1  UNL     1      20.157  58.609  -5.480  0.00  0.00    -0.468 OA
ENDBRANCH   1  23
BRANCH   6  24
ATOM     24  O3  UNL     1      20.865  59.385  -2.962  0.00  0.00    -0.472 OA
BRANCH  24  25
ATOM     25  C20 UNL     1      20.083  58.736  -1.959  0.00  0.00    +0.206 C 
BRANCH  25  26
ATOM     26  C21 UNL     1      20.864  58.638  -0.642  0.00  0.00    +0.051 C 
BRANCH  26  27
ATOM     27  C22 UNL     1      20.063  57.937   0.466  0.00  0.00    +0.051 C 
BRANCH  27  28
ATOM     28  C23 UNL     1      19.491  58.923   1.491  0.00  0.00    +0.206 C 
BRANCH  28  29
ATOM     29  O4  UNL     1      19.182  58.249   2.711  0.00  0.00    -0.475 OA
BRANCH  29  30
ATOM     30  C24 UNL     1      17.900  58.124   3.271  0.00  0.00    +0.139 A 
ATOM     31  C25 UNL     1      17.645  58.311   4.643  0.00  0.00    +0.037 A 
ATOM     32  C26 UNL     1      16.347  58.178   5.145  0.00  0.00    +0.006 A 
ATOM     33  C27 UNL     1      15.277  57.861   4.290  0.00  0.00    +0.040 A 
ATOM     34  C29 UNL     1      15.538  57.675   2.921  0.00  0.00    +0.006 A 
ATOM     35  C30 UNL     1      16.837  57.807   2.422  0.00  0.00    +0.037 A 
BRANCH  33  36
ATOM     36  C28 UNL     1      13.898  57.728   4.822  0.00  0.00    +0.208 A 
ATOM     37  N3  UNL     1      12.864  57.150   4.173  0.00  0.00    -0.106 NA
ATOM     38  N4  UNL     1      11.828  57.247   4.990  0.00  0.00    -0.021 NA
ATOM     39  N5  UNL     1      12.198  57.857   6.101  0.00  0.00    -0.021 NA
ATOM     40  N6  UNL     1      13.481  58.170   6.028  0.00  0.00    -0.106 NA
ENDBRANCH  33  36
ENDBRANCH  29  30
ENDBRANCH  28  29
ENDBRANCH  27  28
ENDBRANCH  26  27
ENDBRANCH  25  26
ENDBRANCH  24  25
ENDBRANCH   6  24
TORSDOF 11
ENDMDL
