MODEL 1
REMARK VINA RESULT:     -10.0      0.000      0.000
REMARK  Name = ./data/4u7t_site_bc02/pdb/l0c2.pdb
REMARK  11 active torsions:
REMARK  status: ('A' for Active; 'I' for Inactive)
REMARK    1  A    between atoms: O1_2  and  C2_3
REMARK    2  A    between atoms: C5_6  and  C6_7
REMARK    3  A    between atoms: N2_9  and  C7_10
REMARK    4  A    between atoms: C19_23  and  O3_24
REMARK    5  A    between atoms: O3_24  and  C20_25
REMARK    6  A    between atoms: C20_25  and  C21_26
REMARK    7  A    between atoms: C21_26  and  C22_27
REMARK    8  A    between atoms: C22_27  and  C23_28
REMARK    9  A    between atoms: C23_28  and  O4_29
REMARK   10  A    between atoms: O4_29  and  C24_30
REMARK   11  A    between atoms: C27_33  and  C28_34
REMARK                            x       y       z     vdW  Elec       q    Type
REMARK                         _______ _______ _______ _____ _____    ______ ____
ROOT
ATOM      1  C2  UNL     1      19.968  58.215  -2.077  0.00  0.00    +0.172 A 
ATOM      2  C3  UNL     1      19.538  56.993  -2.622  0.00  0.00    +0.040 A 
ATOM      3  C4  UNL     1      19.453  56.823  -4.005  0.00  0.00    +0.005 A 
ATOM      4  C5  UNL     1      19.785  57.871  -4.880  0.00  0.00    +0.019 A 
ATOM      5  C18 UNL     1      20.211  59.094  -4.326  0.00  0.00    +0.041 A 
ATOM      6  C19 UNL     1      20.314  59.268  -2.933  0.00  0.00    +0.172 A 
ENDROOT
BRANCH   4   7
ATOM      7  C6  UNL     1      19.706  57.726  -6.365  0.00  0.00    +0.086 C 
ATOM      8  N1  UNL     1      20.248  58.602  -7.151  0.00  0.00    -0.171 NA
ATOM      9  N2  UNL     1      20.068  58.230  -8.482  0.00  0.00    -0.222 N 
ATOM     10  C14 UNL     1      19.426  57.110  -8.545  0.00  0.00    +0.257 C 
ATOM     11  O2  UNL     1      19.121  56.466  -9.743  0.00  0.00    -0.270 OA
ATOM     12  C15 UNL     1      19.063  56.610  -7.177  0.00  0.00    +0.110 C 
ATOM     13  C16 UNL     1      19.721  55.242  -6.930  0.00  0.00    +0.015 C 
ATOM     14  C17 UNL     1      17.531  56.574  -7.039  0.00  0.00    +0.015 C 
BRANCH   9  15
ATOM     15  C7  UNL     1      20.598  59.020  -9.603  0.00  0.00    +0.108 C 
ATOM     16  C8  UNL     1      20.398  60.526  -9.321  0.00  0.00    +0.024 C 
ATOM     17  C9  UNL     1      20.502  61.409 -10.571  0.00  0.00    +0.002 C 
ATOM     18  C10 UNL     1      21.851  61.294 -11.299  0.00  0.00    +0.000 C 
ATOM     19  C11 UNL     1      21.964  59.993 -12.110  0.00  0.00    +0.000 C 
ATOM     20  C12 UNL     1      22.533  58.799 -11.322  0.00  0.00    +0.002 C 
ATOM     21  C13 UNL     1      22.085  58.675  -9.854  0.00  0.00    +0.024 C 
ENDBRANCH   9  15
ENDBRANCH   4   7
BRANCH   1  23
ATOM     22  C1  UNL     1      19.599  57.505   0.296  0.00  0.00    +0.253 C 
ATOM     23  O1  UNL     1      20.068  58.418  -0.692  0.00  0.00    -0.468 OA
ENDBRANCH   1  23
BRANCH   6  24
ATOM     24  O3  UNL     1      20.756  60.471  -2.353  0.00  0.00    -0.472 OA
BRANCH  24  25
ATOM     25  C20 UNL     1      22.087  60.749  -1.918  0.00  0.00    +0.206 C 
BRANCH  25  26
ATOM     26  C21 UNL     1      22.073  61.675  -0.693  0.00  0.00    +0.051 C 
BRANCH  26  27
ATOM     27  C22 UNL     1      22.631  63.071  -1.006  0.00  0.00    +0.051 C 
BRANCH  27  28
ATOM     28  C23 UNL     1      21.580  64.175  -0.835  0.00  0.00    +0.206 C 
BRANCH  28  29
ATOM     29  O4  UNL     1      20.781  64.289  -2.012  0.00  0.00    -0.475 OA
BRANCH  29  30
ATOM     30  C24 UNL     1      20.591  65.464  -2.758  0.00  0.00    +0.139 A 
ATOM     31  C25 UNL     1      19.563  66.386  -2.481  0.00  0.00    +0.037 A 
ATOM     32  C26 UNL     1      19.425  67.543  -3.254  0.00  0.00    +0.006 A 
ATOM     33  C27 UNL     1      20.309  67.805  -4.315  0.00  0.00    +0.040 A 
ATOM     34  C29 UNL     1      21.333  66.881  -4.587  0.00  0.00    +0.006 A 
ATOM     35  C30 UNL     1      21.469  65.725  -3.814  0.00  0.00    +0.037 A 
BRANCH  33  36
ATOM     36  C28 UNL     1      20.166  69.037  -5.130  0.00  0.00    +0.208 A 
ATOM     37  N3  UNL     1      19.266  70.019  -4.909  0.00  0.00    -0.106 NA
ATOM     38  N4  UNL     1      19.473  70.918  -5.856  0.00  0.00    -0.021 NA
ATOM     39  N5  UNL     1      20.461  70.518  -6.636  0.00  0.00    -0.021 NA
ATOM     40  N6  UNL     1      20.914  69.350  -6.211  0.00  0.00    -0.106 NA
ENDBRANCH  33  36
ENDBRANCH  29  30
ENDBRANCH  28  29
ENDBRANCH  27  28
ENDBRANCH  26  27
ENDBRANCH  25  26
ENDBRANCH  24  25
ENDBRANCH   6  24
TORSDOF 11
ENDMDL
MODEL 2
REMARK VINA RESULT:      -9.2      4.279      7.903
REMARK  Name = ./data/4u7t_site_bc02/pdb/l0c2.pdb
REMARK  11 active torsions:
REMARK  status: ('A' for Active; 'I' for Inactive)
REMARK    1  A    between atoms: O1_2  and  C2_3
REMARK    2  A    between atoms: C5_6  and  C6_7
REMARK    3  A    between atoms: N2_9  and  C7_10
REMARK    4  A    between atoms: C19_23  and  O3_24
REMARK    5  A    between atoms: O3_24  and  C20_25
REMARK    6  A    between atoms: C20_25  and  C21_26
REMARK    7  A    between atoms: C21_26  and  C22_27
REMARK    8  A    between atoms: C22_27  and  C23_28
REMARK    9  A    between atoms: C23_28  and  O4_29
REMARK   10  A    between atoms: O4_29  and  C24_30
REMARK   11  A    between atoms: C27_33  and  C28_34
REMARK                            x       y       z     vdW  Elec       q    Type
REMARK                         _______ _______ _______ _____ _____    ______ ____
ROOT
ATOM      1  C2  UNL     1      20.530  63.167  -3.215  0.00  0.00    +0.172 A 
ATOM      2  C3  UNL     1      19.613  63.515  -4.221  0.00  0.00    +0.040 A 
ATOM      3  C4  UNL     1      19.373  62.652  -5.292  0.00  0.00    +0.005 A 
ATOM      4  C5  UNL     1      20.049  61.424  -5.392  0.00  0.00    +0.019 A 
ATOM      5  C18 UNL     1      20.971  61.085  -4.381  0.00  0.00    +0.041 A 
ATOM      6  C19 UNL     1      21.207  61.942  -3.291  0.00  0.00    +0.172 A 
ENDROOT
BRANCH   4   7
ATOM      7  C6  UNL     1      19.819  60.475  -6.523  0.00  0.00    +0.086 C 
ATOM      8  N1  UNL     1      20.503  60.565  -7.619  0.00  0.00    -0.171 NA
ATOM      9  N2  UNL     1      20.130  59.554  -8.504  0.00  0.00    -0.222 N 
ATOM     10  C14 UNL     1      19.220  58.810  -7.965  0.00  0.00    +0.257 C 
ATOM     11  O2  UNL     1      18.667  57.696  -8.595  0.00  0.00    -0.270 OA
ATOM     12  C15 UNL     1      18.850  59.303  -6.596  0.00  0.00    +0.110 C 
ATOM     13  C16 UNL     1      19.154  58.217  -5.551  0.00  0.00    +0.015 C 
ATOM     14  C17 UNL     1      17.375  59.743  -6.595  0.00  0.00    +0.015 C 
BRANCH   9  15
ATOM     15  C7  UNL     1      20.754  59.387  -9.824  0.00  0.00    +0.108 C 
ATOM     16  C8  UNL     1      20.978  60.771 -10.474  0.00  0.00    +0.024 C 
ATOM     17  C9  UNL     1      21.207  60.712 -11.990  0.00  0.00    +0.002 C 
ATOM     18  C10 UNL     1      22.414  59.855 -12.401  0.00  0.00    +0.000 C 
ATOM     19  C11 UNL     1      22.118  58.350 -12.307  0.00  0.00    +0.000 C 
ATOM     20  C12 UNL     1      22.418  57.727 -10.931  0.00  0.00    +0.002 C 
ATOM     21  C13 UNL     1      22.074  58.589  -9.702  0.00  0.00    +0.024 C 
ENDBRANCH   9  15
ENDBRANCH   4   7
BRANCH   1  23
ATOM     22  C1  UNL     1      20.326  65.351  -2.006  0.00  0.00    +0.253 C 
ATOM     23  O1  UNL     1      20.793  64.010  -2.123  0.00  0.00    -0.468 OA
ENDBRANCH   1  23
BRANCH   6  24
ATOM     24  O3  UNL     1      22.106  61.621  -2.258  0.00  0.00    -0.472 OA
BRANCH  24  25
ATOM     25  C20 UNL     1      21.750  61.258  -0.924  0.00  0.00    +0.206 C 
BRANCH  25  26
ATOM     26  C21 UNL     1      22.748  61.849   0.082  0.00  0.00    +0.051 C 
BRANCH  26  27
ATOM     27  C22 UNL     1      22.086  62.837   1.055  0.00  0.00    +0.051 C 
BRANCH  27  28
ATOM     28  C23 UNL     1      22.282  62.437   2.522  0.00  0.00    +0.206 C 
BRANCH  28  29
ATOM     29  O4  UNL     1      21.064  61.931   3.067  0.00  0.00    -0.475 OA
BRANCH  29  30
ATOM     30  C24 UNL     1      20.725  60.573   3.183  0.00  0.00    +0.139 A 
ATOM     31  C25 UNL     1      21.065  59.795   4.306  0.00  0.00    +0.037 A 
ATOM     32  C26 UNL     1      20.697  58.447   4.370  0.00  0.00    +0.006 A 
ATOM     33  C27 UNL     1      19.980  57.850   3.318  0.00  0.00    +0.040 A 
ATOM     34  C29 UNL     1      19.644  58.632   2.200  0.00  0.00    +0.006 A 
ATOM     35  C30 UNL     1      20.014  59.978   2.137  0.00  0.00    +0.037 A 
BRANCH  33  36
ATOM     36  C28 UNL     1      19.583  56.422   3.390  0.00  0.00    +0.208 A 
ATOM     37  N3  UNL     1      18.313  55.963   3.367  0.00  0.00    -0.106 NA
ATOM     38  N4  UNL     1      18.403  54.648   3.456  0.00  0.00    -0.021 NA
ATOM     39  N5  UNL     1      19.675  54.297   3.531  0.00  0.00    -0.021 NA
ATOM     40  N6  UNL     1      20.435  55.379   3.493  0.00  0.00    -0.106 NA
ENDBRANCH  33  36
ENDBRANCH  29  30
ENDBRANCH  28  29
ENDBRANCH  27  28
ENDBRANCH  26  27
ENDBRANCH  25  26
ENDBRANCH  24  25
ENDBRANCH   6  24
TORSDOF 11
ENDMDL
MODEL 3
REMARK VINA RESULT:      -8.9      1.544      2.362
REMARK  Name = ./data/4u7t_site_bc02/pdb/l0c2.pdb
REMARK  11 active torsions:
REMARK  status: ('A' for Active; 'I' for Inactive)
REMARK    1  A    between atoms: O1_2  and  C2_3
REMARK    2  A    between atoms: C5_6  and  C6_7
REMARK    3  A    between atoms: N2_9  and  C7_10
REMARK    4  A    between atoms: C19_23  and  O3_24
REMARK    5  A    between atoms: O3_24  and  C20_25
REMARK    6  A    between atoms: C20_25  and  C21_26
REMARK    7  A    between atoms: C21_26  and  C22_27
REMARK    8  A    between atoms: C22_27  and  C23_28
REMARK    9  A    between atoms: C23_28  and  O4_29
REMARK   10  A    between atoms: O4_29  and  C24_30
REMARK   11  A    between atoms: C27_33  and  C28_34
REMARK                            x       y       z     vdW  Elec       q    Type
REMARK                         _______ _______ _______ _____ _____    ______ ____
ROOT
ATOM      1  C2  UNL     1      19.174  55.527  -3.424  0.00  0.00    +0.172 A 
ATOM      2  C3  UNL     1      19.310  54.431  -4.292  0.00  0.00    +0.040 A 
ATOM      3  C4  UNL     1      19.632  54.625  -5.637  0.00  0.00    +0.005 A 
ATOM      4  C5  UNL     1      19.815  55.919  -6.153  0.00  0.00    +0.019 A 
ATOM      5  C18 UNL     1      19.671  57.014  -5.278  0.00  0.00    +0.041 A 
ATOM      6  C19 UNL     1      19.363  56.825  -3.917  0.00  0.00    +0.172 A 
ENDROOT
BRANCH   4   7
ATOM      7  C6  UNL     1      20.158  56.165  -7.586  0.00  0.00    +0.086 C 
ATOM      8  N1  UNL     1      20.242  57.370  -8.055  0.00  0.00    -0.171 NA
ATOM      9  N2  UNL     1      20.606  57.340  -9.400  0.00  0.00    -0.222 N 
ATOM     10  C14 UNL     1      20.770  56.116  -9.784  0.00  0.00    +0.257 C 
ATOM     11  O2  UNL     1      21.166  55.764 -11.074  0.00  0.00    -0.270 OA
ATOM     12  C15 UNL     1      20.482  55.149  -8.673  0.00  0.00    +0.110 C 
ATOM     13  C16 UNL     1      21.741  54.325  -8.358  0.00  0.00    +0.015 C 
ATOM     14  C17 UNL     1      19.273  54.278  -9.058  0.00  0.00    +0.015 C 
BRANCH   9  15
ATOM     15  C7  UNL     1      20.803  58.560 -10.195  0.00  0.00    +0.108 C 
ATOM     16  C8  UNL     1      20.612  59.804  -9.297  0.00  0.00    +0.024 C 
ATOM     17  C9  UNL     1      20.361  61.098 -10.081  0.00  0.00    +0.002 C 
ATOM     18  C10 UNL     1      21.488  61.458 -11.061  0.00  0.00    +0.000 C 
ATOM     19  C11 UNL     1      21.454  60.590 -12.329  0.00  0.00    +0.000 C 
ATOM     20  C12 UNL     1      22.255  59.278 -12.225  0.00  0.00    +0.002 C 
ATOM     21  C13 UNL     1      22.194  58.547 -10.871  0.00  0.00    +0.024 C 
ENDBRANCH   9  15
ENDBRANCH   4   7
BRANCH   1  23
ATOM     22  C1  UNL     1      17.617  54.857  -1.582  0.00  0.00    +0.253 C 
ATOM     23  O1  UNL     1      18.855  55.368  -2.067  0.00  0.00    -0.468 OA
ENDBRANCH   1  23
BRANCH   6  24
ATOM     24  O3  UNL     1      19.234  57.898  -3.017  0.00  0.00    -0.472 OA
BRANCH  24  25
ATOM     25  C20 UNL     1      20.209  58.302  -2.055  0.00  0.00    +0.206 C 
BRANCH  25  26
ATOM     26  C21 UNL     1      21.176  59.328  -2.663  0.00  0.00    +0.051 C 
BRANCH  26  27
ATOM     27  C22 UNL     1      21.110  60.689  -1.955  0.00  0.00    +0.051 C 
BRANCH  27  28
ATOM     28  C23 UNL     1      21.059  61.863  -2.942  0.00  0.00    +0.206 C 
BRANCH  28  29
ATOM     29  O4  UNL     1      20.240  62.912  -2.425  0.00  0.00    -0.475 OA
BRANCH  29  30
ATOM     30  C24 UNL     1      20.199  64.228  -2.911  0.00  0.00    +0.139 A 
ATOM     31  C25 UNL     1      21.337  64.897  -3.401  0.00  0.00    +0.037 A 
ATOM     32  C26 UNL     1      21.236  66.208  -3.878  0.00  0.00    +0.006 A 
ATOM     33  C27 UNL     1      19.998  66.876  -3.880  0.00  0.00    +0.040 A 
ATOM     34  C29 UNL     1      18.866  66.203  -3.390  0.00  0.00    +0.006 A 
ATOM     35  C30 UNL     1      18.969  64.893  -2.912  0.00  0.00    +0.037 A 
BRANCH  33  36
ATOM     36  C28 UNL     1      19.890  68.263  -4.394  0.00  0.00    +0.208 A 
ATOM     37  N3  UNL     1      20.619  68.779  -5.408  0.00  0.00    -0.106 NA
ATOM     38  N4  UNL     1      20.217  70.032  -5.539  0.00  0.00    -0.021 NA
ATOM     39  N5  UNL     1      19.276  70.289  -4.649  0.00  0.00    -0.021 NA
ATOM     40  N6  UNL     1      19.050  69.209  -3.920  0.00  0.00    -0.106 NA
ENDBRANCH  33  36
ENDBRANCH  29  30
ENDBRANCH  28  29
ENDBRANCH  27  28
ENDBRANCH  26  27
ENDBRANCH  25  26
ENDBRANCH  24  25
ENDBRANCH   6  24
TORSDOF 11
ENDMDL
MODEL 4
REMARK VINA RESULT:      -8.9      4.592      7.648
REMARK  Name = ./data/4u7t_site_bc02/pdb/l0c2.pdb
REMARK  11 active torsions:
REMARK  status: ('A' for Active; 'I' for Inactive)
REMARK    1  A    between atoms: O1_2  and  C2_3
REMARK    2  A    between atoms: C5_6  and  C6_7
REMARK    3  A    between atoms: N2_9  and  C7_10
REMARK    4  A    between atoms: C19_23  and  O3_24
REMARK    5  A    between atoms: O3_24  and  C20_25
REMARK    6  A    between atoms: C20_25  and  C21_26
REMARK    7  A    between atoms: C21_26  and  C22_27
REMARK    8  A    between atoms: C22_27  and  C23_28
REMARK    9  A    between atoms: C23_28  and  O4_29
REMARK   10  A    between atoms: O4_29  and  C24_30
REMARK   11  A    between atoms: C27_33  and  C28_34
REMARK                            x       y       z     vdW  Elec       q    Type
REMARK                         _______ _______ _______ _____ _____    ______ ____
ROOT
ATOM      1  C2  UNL     1      20.781  59.735  -2.216  0.00  0.00    +0.172 A 
ATOM      2  C3  UNL     1      20.953  60.806  -3.108  0.00  0.00    +0.040 A 
ATOM      3  C4  UNL     1      20.596  60.675  -4.452  0.00  0.00    +0.005 A 
ATOM      4  C5  UNL     1      20.068  59.468  -4.942  0.00  0.00    +0.019 A 
ATOM      5  C18 UNL     1      19.903  58.397  -4.041  0.00  0.00    +0.041 A 
ATOM      6  C19 UNL     1      20.246  58.526  -2.682  0.00  0.00    +0.172 A 
ENDROOT
BRANCH   4   7
ATOM      7  C6  UNL     1      19.676  59.291  -6.372  0.00  0.00    +0.086 C 
ATOM      8  N1  UNL     1      20.517  59.527  -7.329  0.00  0.00    -0.171 NA
ATOM      9  N2  UNL     1      19.929  59.258  -8.564  0.00  0.00    -0.222 N 
ATOM     10  C14 UNL     1      18.719  58.834  -8.393  0.00  0.00    +0.257 C 
ATOM     11  O2  UNL     1      17.885  58.453  -9.443  0.00  0.00    -0.270 OA
ATOM     12  C15 UNL     1      18.348  58.809  -6.939  0.00  0.00    +0.110 C 
ATOM     13  C16 UNL     1      18.007  57.372  -6.512  0.00  0.00    +0.015 C 
ATOM     14  C17 UNL     1      17.196  59.799  -6.691  0.00  0.00    +0.015 C 
BRANCH   9  15
ATOM     15  C7  UNL     1      20.651  59.411  -9.835  0.00  0.00    +0.108 C 
ATOM     16  C8  UNL     1      20.765  60.910 -10.193  0.00  0.00    +0.024 C 
ATOM     17  C9  UNL     1      21.095  61.170 -11.668  0.00  0.00    +0.002 C 
ATOM     18  C10 UNL     1      22.412  60.527 -12.130  0.00  0.00    +0.000 C 
ATOM     19  C11 UNL     1      22.276  59.011 -12.345  0.00  0.00    +0.000 C 
ATOM     20  C12 UNL     1      22.552  58.163 -11.090  0.00  0.00    +0.002 C 
ATOM     21  C13 UNL     1      22.039  58.733  -9.754  0.00  0.00    +0.024 C 
ENDBRANCH   9  15
ENDBRANCH   4   7
BRANCH   1  23
ATOM     22  C1  UNL     1      21.435  61.052  -0.189  0.00  0.00    +0.253 C 
ATOM     23  O1  UNL     1      21.126  59.833  -0.858  0.00  0.00    -0.468 OA
ENDBRANCH   1  23
BRANCH   6  24
ATOM     24  O3  UNL     1      20.073  57.481  -1.757  0.00  0.00    -0.472 OA
BRANCH  24  25
ATOM     25  C20 UNL     1      18.822  56.943  -1.328  0.00  0.00    +0.206 C 
BRANCH  25  26
ATOM     26  C21 UNL     1      18.567  55.578  -1.983  0.00  0.00    +0.051 C 
BRANCH  26  27
ATOM     27  C22 UNL     1      18.066  54.530  -0.977  0.00  0.00    +0.051 C 
BRANCH  27  28
ATOM     28  C23 UNL     1      16.666  54.854  -0.441  0.00  0.00    +0.206 C 
BRANCH  28  29
ATOM     29  O4  UNL     1      16.700  55.003   0.979  0.00  0.00    -0.475 OA
BRANCH  29  30
ATOM     30  C24 UNL     1      17.316  56.056   1.674  0.00  0.00    +0.139 A 
ATOM     31  C25 UNL     1      16.775  57.356   1.726  0.00  0.00    +0.037 A 
ATOM     32  C26 UNL     1      17.430  58.365   2.438  0.00  0.00    +0.006 A 
ATOM     33  C27 UNL     1      18.634  58.099   3.114  0.00  0.00    +0.040 A 
ATOM     34  C29 UNL     1      19.168  56.801   3.058  0.00  0.00    +0.006 A 
ATOM     35  C30 UNL     1      18.513  55.793   2.345  0.00  0.00    +0.037 A 
BRANCH  33  36
ATOM     36  C28 UNL     1      19.324  59.169   3.876  0.00  0.00    +0.208 A 
ATOM     37  N3  UNL     1      19.110  59.463   5.177  0.00  0.00    -0.106 NA
ATOM     38  N4  UNL     1      19.917  60.472   5.456  0.00  0.00    -0.021 NA
ATOM     39  N5  UNL     1      20.608  60.796   4.377  0.00  0.00    -0.021 NA
ATOM     40  N6  UNL     1      20.261  60.004   3.377  0.00  0.00    -0.106 NA
ENDBRANCH  33  36
ENDBRANCH  29  30
ENDBRANCH  28  29
ENDBRANCH  27  28
ENDBRANCH  26  27
ENDBRANCH  25  26
ENDBRANCH  24  25
ENDBRANCH   6  24
TORSDOF 11
ENDMDL
MODEL 5
REMARK VINA RESULT:      -8.5      5.128      8.726
REMARK  Name = ./data/4u7t_site_bc02/pdb/l0c2.pdb
REMARK  11 active torsions:
REMARK  status: ('A' for Active; 'I' for Inactive)
REMARK    1  A    between atoms: O1_2  and  C2_3
REMARK    2  A    between atoms: C5_6  and  C6_7
REMARK    3  A    between atoms: N2_9  and  C7_10
REMARK    4  A    between atoms: C19_23  and  O3_24
REMARK    5  A    between atoms: O3_24  and  C20_25
REMARK    6  A    between atoms: C20_25  and  C21_26
REMARK    7  A    between atoms: C21_26  and  C22_27
REMARK    8  A    between atoms: C22_27  and  C23_28
REMARK    9  A    between atoms: C23_28  and  O4_29
REMARK   10  A    between atoms: O4_29  and  C24_30
REMARK   11  A    between atoms: C27_33  and  C28_34
REMARK                            x       y       z     vdW  Elec       q    Type
REMARK                         _______ _______ _______ _____ _____    ______ ____
ROOT
ATOM      1  C2  UNL     1      20.878  62.452  -2.738  0.00  0.00    +0.172 A 
ATOM      2  C3  UNL     1      20.347  63.144  -3.840  0.00  0.00    +0.040 A 
ATOM      3  C4  UNL     1      20.029  62.466  -5.018  0.00  0.00    +0.005 A 
ATOM      4  C5  UNL     1      20.242  61.081  -5.131  0.00  0.00    +0.019 A 
ATOM      5  C18 UNL     1      20.779  60.395  -4.023  0.00  0.00    +0.041 A 
ATOM      6  C19 UNL     1      21.087  61.069  -2.826  0.00  0.00    +0.172 A 
ENDROOT
BRANCH   4   7
ATOM      7  C6  UNL     1      19.915  60.322  -6.376  0.00  0.00    +0.086 C 
ATOM      8  N1  UNL     1      20.616  60.474  -7.454  0.00  0.00    -0.171 NA
ATOM      9  N2  UNL     1      20.137  59.638  -8.461  0.00  0.00    -0.222 N 
ATOM     10  C14 UNL     1      19.141  58.941  -8.020  0.00  0.00    +0.257 C 
ATOM     11  O2  UNL     1      18.470  57.991  -8.788  0.00  0.00    -0.270 OA
ATOM     12  C15 UNL     1      18.817  59.290  -6.596  0.00  0.00    +0.110 C 
ATOM     13  C16 UNL     1      18.982  58.049  -5.704  0.00  0.00    +0.015 C 
ATOM     14  C17 UNL     1      17.404  59.895  -6.530  0.00  0.00    +0.015 C 
BRANCH   9  15
ATOM     15  C7  UNL     1      20.751  59.573  -9.795  0.00  0.00    +0.108 C 
ATOM     16  C8  UNL     1      20.894  60.999 -10.373  0.00  0.00    +0.024 C 
ATOM     17  C9  UNL     1      21.105  61.032 -11.892  0.00  0.00    +0.002 C 
ATOM     18  C10 UNL     1      22.349  60.263 -12.362  0.00  0.00    +0.000 C 
ATOM     19  C11 UNL     1      22.133  58.741 -12.344  0.00  0.00    +0.000 C 
ATOM     20  C12 UNL     1      22.483  58.063 -11.007  0.00  0.00    +0.002 C 
ATOM     21  C13 UNL     1      22.112  58.840  -9.730  0.00  0.00    +0.024 C 
ENDBRANCH   9  15
ENDBRANCH   4   7
BRANCH   1  23
ATOM     22  C1  UNL     1      22.499  63.607  -1.219  0.00  0.00    +0.253 C 
ATOM     23  O1  UNL     1      21.206  63.102  -1.538  0.00  0.00    -0.468 OA
ENDBRANCH   1  23
BRANCH   6  24
ATOM     24  O3  UNL     1      21.605  60.407  -1.699  0.00  0.00    -0.472 OA
BRANCH  24  25
ATOM     25  C20 UNL     1      20.838  59.731  -0.702  0.00  0.00    +0.206 C 
BRANCH  25  26
ATOM     26  C21 UNL     1      20.809  58.220  -0.975  0.00  0.00    +0.051 C 
BRANCH  26  27
ATOM     27  C22 UNL     1      19.468  57.757  -1.565  0.00  0.00    +0.051 C 
BRANCH  27  28
ATOM     28  C23 UNL     1      18.908  56.521  -0.850  0.00  0.00    +0.206 C 
BRANCH  28  29
ATOM     29  O4  UNL     1      17.488  56.611  -0.741  0.00  0.00    -0.475 OA
BRANCH  29  30
ATOM     30  C24 UNL     1      16.763  56.627   0.462  0.00  0.00    +0.139 A 
ATOM     31  C25 UNL     1      16.677  57.766   1.286  0.00  0.00    +0.037 A 
ATOM     32  C26 UNL     1      15.936  57.726   2.471  0.00  0.00    +0.006 A 
ATOM     33  C27 UNL     1      15.263  56.553   2.856  0.00  0.00    +0.040 A 
ATOM     34  C29 UNL     1      15.352  55.420   2.029  0.00  0.00    +0.006 A 
ATOM     35  C30 UNL     1      16.094  55.461   0.846  0.00  0.00    +0.037 A 
BRANCH  33  36
ATOM     36  C28 UNL     1      14.470  56.514   4.110  0.00  0.00    +0.208 A 
ATOM     37  N3  UNL     1      13.802  55.437   4.578  0.00  0.00    -0.106 NA
ATOM     38  N4  UNL     1      13.232  55.829   5.704  0.00  0.00    -0.021 NA
ATOM     39  N5  UNL     1      13.531  57.095   5.934  0.00  0.00    -0.021 NA
ATOM     40  N6  UNL     1      14.299  57.551   4.959  0.00  0.00    -0.106 NA
ENDBRANCH  33  36
ENDBRANCH  29  30
ENDBRANCH  28  29
ENDBRANCH  27  28
ENDBRANCH  26  27
ENDBRANCH  25  26
ENDBRANCH  24  25
ENDBRANCH   6  24
TORSDOF 11
ENDMDL
MODEL 6
REMARK VINA RESULT:      -7.9      5.772      9.323
REMARK  Name = ./data/4u7t_site_bc02/pdb/l0c2.pdb
REMARK  11 active torsions:
REMARK  status: ('A' for Active; 'I' for Inactive)
REMARK    1  A    between atoms: O1_2  and  C2_3
REMARK    2  A    between atoms: C5_6  and  C6_7
REMARK    3  A    between atoms: N2_9  and  C7_10
REMARK    4  A    between atoms: C19_23  and  O3_24
REMARK    5  A    between atoms: O3_24  and  C20_25
REMARK    6  A    between atoms: C20_25  and  C21_26
REMARK    7  A    between atoms: C21_26  and  C22_27
REMARK    8  A    between atoms: C22_27  and  C23_28
REMARK    9  A    between atoms: C23_28  and  O4_29
REMARK   10  A    between atoms: O4_29  and  C24_30
REMARK   11  A    between atoms: C27_33  and  C28_34
REMARK                            x       y       z     vdW  Elec       q    Type
REMARK                         _______ _______ _______ _____ _____    ______ ____
ROOT
ATOM      1  C2  UNL     1      21.280  60.439  -1.897  0.00  0.00    +0.172 A 
ATOM      2  C3  UNL     1      21.524  61.410  -2.883  0.00  0.00    +0.040 A 
ATOM      3  C4  UNL     1      21.171  61.175  -4.213  0.00  0.00    +0.005 A 
ATOM      4  C5  UNL     1      20.575  59.962  -4.596  0.00  0.00    +0.019 A 
ATOM      5  C18 UNL     1      20.337  58.992  -3.602  0.00  0.00    +0.041 A 
ATOM      6  C19 UNL     1      20.676  59.227  -2.256  0.00  0.00    +0.172 A 
ENDROOT
BRANCH   4   7
ATOM      7  C6  UNL     1      20.184  59.676  -6.009  0.00  0.00    +0.086 C 
ATOM      8  N1  UNL     1      20.999  59.912  -6.988  0.00  0.00    -0.171 NA
ATOM      9  N2  UNL     1      20.420  59.533  -8.198  0.00  0.00    -0.222 N 
ATOM     10  C14 UNL     1      19.243  59.039  -7.989  0.00  0.00    +0.257 C 
ATOM     11  O2  UNL     1      18.428  58.543  -9.005  0.00  0.00    -0.270 OA
ATOM     12  C15 UNL     1      18.887  59.074  -6.531  0.00  0.00    +0.110 C 
ATOM     13  C16 UNL     1      18.647  57.644  -6.019  0.00  0.00    +0.015 C 
ATOM     14  C17 UNL     1      17.672  59.997  -6.327  0.00  0.00    +0.015 C 
BRANCH   9  15
ATOM     15  C7  UNL     1      21.120  59.659  -9.485  0.00  0.00    +0.108 C 
ATOM     16  C8  UNL     1      21.265  58.267 -10.139  0.00  0.00    +0.024 C 
ATOM     17  C9  UNL     1      22.333  58.208 -11.237  0.00  0.00    +0.002 C 
ATOM     18  C10 UNL     1      22.089  59.190 -12.393  0.00  0.00    +0.000 C 
ATOM     19  C11 UNL     1      22.446  60.636 -12.012  0.00  0.00    +0.000 C 
ATOM     20  C12 UNL     1      21.290  61.432 -11.376  0.00  0.00    +0.002 C 
ATOM     21  C13 UNL     1      20.378  60.654 -10.409  0.00  0.00    +0.024 C 
ENDBRANCH   9  15
ENDBRANCH   4   7
BRANCH   1  23
ATOM     22  C1  UNL     1      22.568  61.602  -0.092  0.00  0.00    +0.253 C 
ATOM     23  O1  UNL     1      21.620  60.643  -0.550  0.00  0.00    -0.468 OA
ENDBRANCH   1  23
BRANCH   6  24
ATOM     24  O3  UNL     1      20.433  58.285  -1.241  0.00  0.00    -0.472 OA
BRANCH  24  25
ATOM     25  C20 UNL     1      19.253  57.492  -1.103  0.00  0.00    +0.206 C 
BRANCH  25  26
ATOM     26  C21 UNL     1      19.047  57.080   0.362  0.00  0.00    +0.051 C 
BRANCH  26  27
ATOM     27  C22 UNL     1      19.944  57.871   1.326  0.00  0.00    +0.051 C 
BRANCH  27  28
ATOM     28  C23 UNL     1      19.300  59.188   1.778  0.00  0.00    +0.206 C 
BRANCH  28  29
ATOM     29  O4  UNL     1      19.455  59.358   3.187  0.00  0.00    -0.475 OA
BRANCH  29  30
ATOM     30  C24 UNL     1      18.969  58.483   4.172  0.00  0.00    +0.139 A 
ATOM     31  C25 UNL     1      19.809  57.638   4.923  0.00  0.00    +0.037 A 
ATOM     32  C26 UNL     1      19.270  56.789   5.895  0.00  0.00    +0.006 A 
ATOM     33  C27 UNL     1      17.885  56.768   6.140  0.00  0.00    +0.040 A 
ATOM     34  C29 UNL     1      17.053  57.613   5.387  0.00  0.00    +0.006 A 
ATOM     35  C30 UNL     1      17.593  58.460   4.415  0.00  0.00    +0.037 A 
BRANCH  33  36
ATOM     36  C28 UNL     1      17.316  55.873   7.178  0.00  0.00    +0.208 A 
ATOM     37  N3  UNL     1      17.959  54.831   7.748  0.00  0.00    -0.106 NA
ATOM     38  N4  UNL     1      17.101  54.305   8.606  0.00  0.00    -0.021 NA
ATOM     39  N5  UNL     1      15.971  54.989   8.576  0.00  0.00    -0.021 NA
ATOM     40  N6  UNL     1      16.072  55.971   7.696  0.00  0.00    -0.106 NA
ENDBRANCH  33  36
ENDBRANCH  29  30
ENDBRANCH  28  29
ENDBRANCH  27  28
ENDBRANCH  26  27
ENDBRANCH  25  26
ENDBRANCH  24  25
ENDBRANCH   6  24
TORSDOF 11
ENDMDL
MODEL 7
REMARK VINA RESULT:      -7.8      4.863      8.275
REMARK  Name = ./data/4u7t_site_bc02/pdb/l0c2.pdb
REMARK  11 active torsions:
REMARK  status: ('A' for Active; 'I' for Inactive)
REMARK    1  A    between atoms: O1_2  and  C2_3
REMARK    2  A    between atoms: C5_6  and  C6_7
REMARK    3  A    between atoms: N2_9  and  C7_10
REMARK    4  A    between atoms: C19_23  and  O3_24
REMARK    5  A    between atoms: O3_24  and  C20_25
REMARK    6  A    between atoms: C20_25  and  C21_26
REMARK    7  A    between atoms: C21_26  and  C22_27
REMARK    8  A    between atoms: C22_27  and  C23_28
REMARK    9  A    between atoms: C23_28  and  O4_29
REMARK   10  A    between atoms: O4_29  and  C24_30
REMARK   11  A    between atoms: C27_33  and  C28_34
REMARK                            x       y       z     vdW  Elec       q    Type
REMARK                         _______ _______ _______ _____ _____    ______ ____
ROOT
ATOM      1  C2  UNL     1      19.541  62.505  -3.762  0.00  0.00    +0.172 A 
ATOM      2  C3  UNL     1      18.697  62.358  -4.876  0.00  0.00    +0.040 A 
ATOM      3  C4  UNL     1      18.823  61.254  -5.721  0.00  0.00    +0.005 A 
ATOM      4  C5  UNL     1      19.801  60.273  -5.483  0.00  0.00    +0.019 A 
ATOM      5  C18 UNL     1      20.646  60.430  -4.366  0.00  0.00    +0.041 A 
ATOM      6  C19 UNL     1      20.515  61.533  -3.501  0.00  0.00    +0.172 A 
ENDROOT
BRANCH   4   7
ATOM      7  C6  UNL     1      19.966  59.078  -6.365  0.00  0.00    +0.086 C 
ATOM      8  N1  UNL     1      20.579  59.168  -7.502  0.00  0.00    -0.171 NA
ATOM      9  N2  UNL     1      20.632  57.920  -8.120  0.00  0.00    -0.222 N 
ATOM     10  C14 UNL     1      20.068  57.031  -7.369  0.00  0.00    +0.257 C 
ATOM     11  O2  UNL     1      19.992  55.680  -7.704  0.00  0.00    -0.270 OA
ATOM     12  C15 UNL     1      19.520  57.645  -6.113  0.00  0.00    +0.110 C 
ATOM     13  C16 UNL     1      20.201  57.018  -4.886  0.00  0.00    +0.015 C 
ATOM     14  C17 UNL     1      17.989  57.487  -6.097  0.00  0.00    +0.015 C 
BRANCH   9  15
ATOM     15  C7  UNL     1      21.291  57.706  -9.417  0.00  0.00    +0.108 C 
ATOM     16  C8  UNL     1      20.501  56.661 -10.236  0.00  0.00    +0.024 C 
ATOM     17  C9  UNL     1      21.304  56.042 -11.387  0.00  0.00    +0.002 C 
ATOM     18  C10 UNL     1      21.821  57.070 -12.405  0.00  0.00    +0.000 C 
ATOM     19  C11 UNL     1      23.032  57.854 -11.875  0.00  0.00    +0.000 C 
ATOM     20  C12 UNL     1      22.671  59.131 -11.093  0.00  0.00    +0.002 C 
ATOM     21  C13 UNL     1      21.435  59.044 -10.179  0.00  0.00    +0.024 C 
ENDBRANCH   9  15
ENDBRANCH   4   7
BRANCH   1  23
ATOM     22  C1  UNL     1      18.344  64.512  -2.861  0.00  0.00    +0.253 C 
ATOM     23  O1  UNL     1      19.439  63.601  -2.891  0.00  0.00    -0.468 OA
ENDBRANCH   1  23
BRANCH   6  24
ATOM     24  O3  UNL     1      21.331  61.705  -2.368  0.00  0.00    -0.472 OA
BRANCH  24  25
ATOM     25  C20 UNL     1      21.246  60.955  -1.156  0.00  0.00    +0.206 C 
BRANCH  25  26
ATOM     26  C21 UNL     1      21.375  59.452  -1.439  0.00  0.00    +0.051 C 
BRANCH  26  27
ATOM     27  C22 UNL     1      20.681  58.592  -0.373  0.00  0.00    +0.051 C 
BRANCH  27  28
ATOM     28  C23 UNL     1      19.546  57.740  -0.954  0.00  0.00    +0.206 C 
BRANCH  28  29
ATOM     29  O4  UNL     1      19.126  56.758  -0.006  0.00  0.00    -0.475 OA
BRANCH  29  30
ATOM     30  C24 UNL     1      18.099  56.922   0.937  0.00  0.00    +0.139 A 
ATOM     31  C25 UNL     1      16.743  56.685   0.639  0.00  0.00    +0.037 A 
ATOM     32  C26 UNL     1      15.763  56.860   1.620  0.00  0.00    +0.006 A 
ATOM     33  C27 UNL     1      16.114  57.272   2.918  0.00  0.00    +0.040 A 
ATOM     34  C29 UNL     1      17.468  57.508   3.209  0.00  0.00    +0.006 A 
ATOM     35  C30 UNL     1      18.447  57.333   2.227  0.00  0.00    +0.037 A 
BRANCH  33  36
ATOM     36  C28 UNL     1      15.073  57.450   3.961  0.00  0.00    +0.208 A 
ATOM     37  N3  UNL     1      15.223  58.160   5.100  0.00  0.00    -0.106 NA
ATOM     38  N4  UNL     1      14.072  58.059   5.742  0.00  0.00    -0.021 NA
ATOM     39  N5  UNL     1      13.236  57.319   5.035  0.00  0.00    -0.021 NA
ATOM     40  N6  UNL     1      13.829  56.924   3.921  0.00  0.00    -0.106 NA
ENDBRANCH  33  36
ENDBRANCH  29  30
ENDBRANCH  28  29
ENDBRANCH  27  28
ENDBRANCH  26  27
ENDBRANCH  25  26
ENDBRANCH  24  25
ENDBRANCH   6  24
TORSDOF 11
ENDMDL
