MODEL 1
REMARK VINA RESULT:      -9.3      0.000      0.000
REMARK  Name = ./data/4u7t_site_bc02/pdb/l1c1.pdb
REMARK  11 active torsions:
REMARK  status: ('A' for Active; 'I' for Inactive)
REMARK    1  A    between atoms: O1_2  and  C2_3
REMARK    2  A    between atoms: C5_6  and  C6_7
REMARK    3  A    between atoms: N2_9  and  C7_10
REMARK    4  A    between atoms: C22_26  and  O3_27
REMARK    5  A    between atoms: O3_27  and  C23_28
REMARK    6  A    between atoms: C23_28  and  C24_29
REMARK    7  A    between atoms: C24_29  and  C25_30
REMARK    8  A    between atoms: C25_30  and  C26_31
REMARK    9  A    between atoms: C26_31  and  O4_32
REMARK   10  A    between atoms: O4_32  and  C27_33
REMARK   11  A    between atoms: C30_36  and  C31_37
REMARK                            x       y       z     vdW  Elec       q    Type
REMARK                         _______ _______ _______ _____ _____    ______ ____
ROOT
ATOM      1  C2  UNL     1      40.035  74.359  -5.341  0.00  0.00    +0.172 A 
ATOM      2  C3  UNL     1      39.460  73.253  -5.991  0.00  0.00    +0.040 A 
ATOM      3  C4  UNL     1      39.653  73.055  -7.359  0.00  0.00    +0.005 A 
ATOM      4  C5  UNL     1      40.436  73.948  -8.114  0.00  0.00    +0.018 A 
ATOM      5  C21 UNL     1      41.023  75.045  -7.453  0.00  0.00    +0.041 A 
ATOM      6  C22 UNL     1      40.813  75.264  -6.077  0.00  0.00    +0.172 A 
ENDROOT
BRANCH   4   7
ATOM      7  C6  UNL     1      40.641  73.769  -9.585  0.00  0.00    +0.079 C 
ATOM      8  N1  UNL     1      40.281  72.644 -10.123  0.00  0.00    -0.172 NA
ATOM      9  N2  UNL     1      40.451  72.301 -11.477  0.00  0.00    -0.222 N 
ATOM     10  C14 UNL     1      40.855  73.185 -12.360  0.00  0.00    +0.253 C 
ATOM     11  O2  UNL     1      40.904  72.840 -13.714  0.00  0.00    -0.271 OA
ATOM     12  C15 UNL     1      41.211  74.606 -11.956  0.00  0.00    +0.091 C 
ATOM     13  C16 UNL     1      42.451  75.101 -12.771  0.00  0.00    +0.035 C 
ATOM     14  C17 UNL     1      43.291  76.114 -12.040  0.00  0.00    -0.030 C 
ATOM     15  C18 UNL     1      43.542  75.951 -10.737  0.00  0.00    -0.030 C 
ATOM     16  C19 UNL     1      42.867  74.836  -9.997  0.00  0.00    +0.032 C 
ATOM     17  C20 UNL     1      41.381  74.797 -10.411  0.00  0.00    +0.056 C 
BRANCH   9  18
ATOM     18  C7  UNL     1      40.079  70.916 -11.844  0.00  0.00    +0.108 C 
ATOM     19  C8  UNL     1      41.300  70.157 -12.412  0.00  0.00    +0.024 C 
ATOM     20  C9  UNL     1      40.922  68.919 -13.237  0.00  0.00    +0.002 C 
ATOM     21  C10 UNL     1      40.114  67.877 -12.449  0.00  0.00    +0.000 C 
ATOM     22  C11 UNL     1      38.640  68.285 -12.282  0.00  0.00    +0.000 C 
ATOM     23  C12 UNL     1      38.346  69.157 -11.046  0.00  0.00    +0.002 C 
ATOM     24  C13 UNL     1      39.433  70.174 -10.648  0.00  0.00    +0.024 C 
ENDBRANCH   9  18
ENDBRANCH   4   7
BRANCH   1  26
ATOM     25  C1  UNL     1      38.707  75.208  -3.398  0.00  0.00    +0.253 C 
ATOM     26  O1  UNL     1      39.857  74.594  -3.968  0.00  0.00    -0.468 OA
ENDBRANCH   1  26
BRANCH   6  27
ATOM     27  O3  UNL     1      41.352  76.374  -5.407  0.00  0.00    -0.472 OA
BRANCH  27  28
ATOM     28  C23 UNL     1      42.720  76.774  -5.471  0.00  0.00    +0.206 C 
BRANCH  28  29
ATOM     29  C24 UNL     1      43.622  75.647  -4.966  0.00  0.00    +0.051 C 
BRANCH  29  30
ATOM     30  C25 UNL     1      44.659  75.247  -6.025  0.00  0.00    +0.051 C 
BRANCH  30  31
ATOM     31  C26 UNL     1      45.993  74.857  -5.389  0.00  0.00    +0.206 C 
BRANCH  31  32
ATOM     32  O4  UNL     1      45.776  74.025  -4.252  0.00  0.00    -0.475 OA
BRANCH  32  33
ATOM     33  C27 UNL     1      45.670  72.626  -4.309  0.00  0.00    +0.139 A 
ATOM     34  C28 UNL     1      45.027  71.877  -3.306  0.00  0.00    +0.037 A 
ATOM     35  C29 UNL     1      44.942  70.486  -3.408  0.00  0.00    +0.006 A 
ATOM     36  C30 UNL     1      45.490  69.812  -4.515  0.00  0.00    +0.040 A 
ATOM     37  C32 UNL     1      46.134  70.567  -5.513  0.00  0.00    +0.006 A 
ATOM     38  C33 UNL     1      46.225  71.959  -5.405  0.00  0.00    +0.037 A 
BRANCH  36  39
ATOM     39  C31 UNL     1      45.385  68.333  -4.628  0.00  0.00    +0.208 A 
ATOM     40  N3  UNL     1      44.939  67.506  -3.656  0.00  0.00    -0.106 NA
ATOM     41  N4  UNL     1      44.994  66.287  -4.168  0.00  0.00    -0.021 NA
ATOM     42  N5  UNL     1      45.455  66.347  -5.404  0.00  0.00    -0.021 NA
ATOM     43  N6  UNL     1      45.707  67.606  -5.722  0.00  0.00    -0.106 NA
ENDBRANCH  36  39
ENDBRANCH  32  33
ENDBRANCH  31  32
ENDBRANCH  30  31
ENDBRANCH  29  30
ENDBRANCH  28  29
ENDBRANCH  27  28
ENDBRANCH   6  27
TORSDOF 11
ENDMDL
MODEL 2
REMARK VINA RESULT:      -6.8      2.176      4.368
REMARK  Name = ./data/4u7t_site_bc02/pdb/l1c1.pdb
REMARK  11 active torsions:
REMARK  status: ('A' for Active; 'I' for Inactive)
REMARK    1  A    between atoms: O1_2  and  C2_3
REMARK    2  A    between atoms: C5_6  and  C6_7
REMARK    3  A    between atoms: N2_9  and  C7_10
REMARK    4  A    between atoms: C22_26  and  O3_27
REMARK    5  A    between atoms: O3_27  and  C23_28
REMARK    6  A    between atoms: C23_28  and  C24_29
REMARK    7  A    between atoms: C24_29  and  C25_30
REMARK    8  A    between atoms: C25_30  and  C26_31
REMARK    9  A    between atoms: C26_31  and  O4_32
REMARK   10  A    between atoms: O4_32  and  C27_33
REMARK   11  A    between atoms: C30_36  and  C31_37
REMARK                            x       y       z     vdW  Elec       q    Type
REMARK                         _______ _______ _______ _____ _____    ______ ____
ROOT
ATOM      1  C2  UNL     1      39.903  73.711  -7.845  0.00  0.00    +0.172 A 
ATOM      2  C3  UNL     1      39.302  72.459  -8.059  0.00  0.00    +0.040 A 
ATOM      3  C4  UNL     1      39.642  71.689  -9.173  0.00  0.00    +0.005 A 
ATOM      4  C5  UNL     1      40.603  72.143 -10.096  0.00  0.00    +0.018 A 
ATOM      5  C21 UNL     1      41.214  73.392  -9.866  0.00  0.00    +0.041 A 
ATOM      6  C22 UNL     1      40.857  74.184  -8.757  0.00  0.00    +0.172 A 
ENDROOT
BRANCH   4   7
ATOM      7  C6  UNL     1      40.971  71.348 -11.308  0.00  0.00    +0.079 C 
ATOM      8  N1  UNL     1      41.013  71.958 -12.453  0.00  0.00    -0.172 NA
ATOM      9  N2  UNL     1      41.293  71.345 -13.689  0.00  0.00    -0.222 N 
ATOM     10  C14 UNL     1      41.700  70.100 -13.757  0.00  0.00    +0.253 C 
ATOM     11  O2  UNL     1      42.076  69.560 -14.991  0.00  0.00    -0.271 OA
ATOM     12  C15 UNL     1      41.840  69.240 -12.512  0.00  0.00    +0.091 C 
ATOM     13  C16 UNL     1      41.381  67.776 -12.817  0.00  0.00    +0.035 C 
ATOM     14  C17 UNL     1      40.823  67.055 -11.618  0.00  0.00    -0.030 C 
ATOM     15  C18 UNL     1      40.014  67.700 -10.773  0.00  0.00    -0.030 C 
ATOM     16  C19 UNL     1      39.787  69.171 -10.958  0.00  0.00    +0.032 C 
ATOM     17  C20 UNL     1      41.143  69.847 -11.247  0.00  0.00    +0.056 C 
BRANCH   9  18
ATOM     18  C7  UNL     1      41.165  72.213 -14.882  0.00  0.00    +0.108 C 
ATOM     19  C8  UNL     1      40.153  73.352 -14.623  0.00  0.00    +0.024 C 
ATOM     20  C9  UNL     1      39.609  73.993 -15.906  0.00  0.00    +0.002 C 
ATOM     21  C10 UNL     1      40.701  74.602 -16.800  0.00  0.00    +0.000 C 
ATOM     22  C11 UNL     1      41.470  73.531 -17.594  0.00  0.00    +0.000 C 
ATOM     23  C12 UNL     1      42.684  72.930 -16.860  0.00  0.00    +0.002 C 
ATOM     24  C13 UNL     1      42.545  72.748 -15.337  0.00  0.00    +0.024 C 
ENDBRANCH   9  18
ENDBRANCH   4   7
BRANCH   1  26
ATOM     25  C1  UNL     1      40.090  74.320  -5.424  0.00  0.00    +0.253 C 
ATOM     26  O1  UNL     1      39.580  74.515  -6.739  0.00  0.00    -0.468 OA
ENDBRANCH   1  26
BRANCH   6  27
ATOM     27  O3  UNL     1      41.420  75.450  -8.531  0.00  0.00    -0.472 OA
BRANCH  27  28
ATOM     28  C23 UNL     1      42.615  75.685  -7.789  0.00  0.00    +0.206 C 
BRANCH  28  29
ATOM     29  C24 UNL     1      43.838  75.513  -8.692  0.00  0.00    +0.051 C 
BRANCH  29  30
ATOM     30  C25 UNL     1      44.557  74.185  -8.409  0.00  0.00    +0.051 C 
BRANCH  30  31
ATOM     31  C26 UNL     1      45.880  74.404  -7.677  0.00  0.00    +0.206 C 
BRANCH  31  32
ATOM     32  O4  UNL     1      45.719  74.166  -6.281  0.00  0.00    -0.475 OA
BRANCH  32  33
ATOM     33  C27 UNL     1      45.612  72.889  -5.707  0.00  0.00    +0.139 A 
ATOM     34  C28 UNL     1      46.415  71.809  -6.119  0.00  0.00    +0.037 A 
ATOM     35  C29 UNL     1      46.277  70.556  -5.515  0.00  0.00    +0.006 A 
ATOM     36  C30 UNL     1      45.340  70.355  -4.484  0.00  0.00    +0.040 A 
ATOM     37  C32 UNL     1      44.539  71.439  -4.080  0.00  0.00    +0.006 A 
ATOM     38  C33 UNL     1      44.674  72.690  -4.691  0.00  0.00    +0.037 A 
BRANCH  36  39
ATOM     39  C31 UNL     1      45.205  69.024  -3.834  0.00  0.00    +0.208 A 
ATOM     40  N3  UNL     1      44.866  67.877  -4.465  0.00  0.00    -0.106 NA
ATOM     41  N4  UNL     1      44.874  66.938  -3.534  0.00  0.00    -0.021 NA
ATOM     42  N5  UNL     1      45.203  67.471  -2.371  0.00  0.00    -0.021 NA
ATOM     43  N6  UNL     1      45.417  68.768  -2.523  0.00  0.00    -0.106 NA
ENDBRANCH  36  39
ENDBRANCH  32  33
ENDBRANCH  31  32
ENDBRANCH  30  31
ENDBRANCH  29  30
ENDBRANCH  28  29
ENDBRANCH  27  28
ENDBRANCH   6  27
TORSDOF 11
ENDMDL
