MODEL 1
REMARK VINA RESULT:      -7.9      0.000      0.000
REMARK  Name = ./data/4u7t_site_bc02/pdb/l0c1.pdb
REMARK  11 active torsions:
REMARK  status: ('A' for Active; 'I' for Inactive)
REMARK    1  A    between atoms: O1_2  and  C2_3
REMARK    2  A    between atoms: C5_6  and  C6_7
REMARK    3  A    between atoms: N2_9  and  C7_10
REMARK    4  A    between atoms: C19_23  and  O3_24
REMARK    5  A    between atoms: O3_24  and  C20_25
REMARK    6  A    between atoms: C20_25  and  C21_26
REMARK    7  A    between atoms: C21_26  and  C22_27
REMARK    8  A    between atoms: C22_27  and  C23_28
REMARK    9  A    between atoms: C23_28  and  O4_29
REMARK   10  A    between atoms: O4_29  and  C24_30
REMARK   11  A    between atoms: C27_33  and  C28_34
REMARK                            x       y       z     vdW  Elec       q    Type
REMARK                         _______ _______ _______ _____ _____    ______ ____
ROOT
ATOM      1  C2  UNL     1      62.641  54.120 -12.526  0.00  0.00    +0.172 A 
ATOM      2  C3  UNL     1      61.518  54.900 -12.208  0.00  0.00    +0.040 A 
ATOM      3  C4  UNL     1      61.671  56.218 -11.770  0.00  0.00    +0.005 A 
ATOM      4  C5  UNL     1      62.949  56.787 -11.632  0.00  0.00    +0.019 A 
ATOM      5  C18 UNL     1      64.066  56.018 -11.997  0.00  0.00    +0.041 A 
ATOM      6  C19 UNL     1      63.923  54.684 -12.429  0.00  0.00    +0.172 A 
ENDROOT
BRANCH   4   7
ATOM      7  C6  UNL     1      63.093  58.151 -11.053  0.00  0.00    +0.086 C 
ATOM      8  N1  UNL     1      62.996  59.209 -11.795  0.00  0.00    -0.171 NA
ATOM      9  N2  UNL     1      62.946  60.349 -10.992  0.00  0.00    -0.222 N 
ATOM     10  C14 UNL     1      63.006  60.015  -9.744  0.00  0.00    +0.257 C 
ATOM     11  O2  UNL     1      62.957  60.941  -8.705  0.00  0.00    -0.270 OA
ATOM     12  C15 UNL     1      63.141  58.529  -9.576  0.00  0.00    +0.110 C 
ATOM     13  C16 UNL     1      64.495  58.215  -8.913  0.00  0.00    +0.015 C 
ATOM     14  C17 UNL     1      61.944  57.965  -8.787  0.00  0.00    +0.015 C 
BRANCH   9  15
ATOM     15  C7  UNL     1      62.839  61.725 -11.500  0.00  0.00    +0.108 C 
ATOM     16  C8  UNL     1      62.021  61.780 -12.821  0.00  0.00    +0.024 C 
ATOM     17  C9  UNL     1      61.265  63.109 -12.989  0.00  0.00    +0.002 C 
ATOM     18  C10 UNL     1      62.153  64.284 -13.411  0.00  0.00    +0.000 C 
ATOM     19  C11 UNL     1      63.286  64.581 -12.415  0.00  0.00    +0.000 C 
ATOM     20  C12 UNL     1      64.425  63.558 -12.529  0.00  0.00    +0.002 C 
ATOM     21  C13 UNL     1      64.263  62.339 -11.605  0.00  0.00    +0.024 C 
ENDBRANCH   9  15
ENDBRANCH   4   7
BRANCH   1  23
ATOM     22  C1  UNL     1      62.084  51.716 -12.110  0.00  0.00    +0.253 C 
ATOM     23  O1  UNL     1      62.530  52.782 -12.940  0.00  0.00    -0.468 OA
ENDBRANCH   1  23
BRANCH   6  24
ATOM     24  O3  UNL     1      65.029  53.878 -12.767  0.00  0.00    -0.472 OA
BRANCH  24  25
ATOM     25  C20 UNL     1      66.227  54.338 -13.399  0.00  0.00    +0.206 C 
BRANCH  25  26
ATOM     26  C21 UNL     1      65.992  54.582 -14.897  0.00  0.00    +0.051 C 
BRANCH  26  27
ATOM     27  C22 UNL     1      67.046  53.850 -15.737  0.00  0.00    +0.051 C 
BRANCH  27  28
ATOM     28  C23 UNL     1      66.719  53.924 -17.231  0.00  0.00    +0.206 C 
BRANCH  28  29
ATOM     29  O4  UNL     1      65.782  54.970 -17.483  0.00  0.00    -0.475 OA
BRANCH  29  30
ATOM     30  C24 UNL     1      66.029  56.124 -18.247  0.00  0.00    +0.139 A 
ATOM     31  C25 UNL     1      67.300  56.452 -18.754  0.00  0.00    +0.037 A 
ATOM     32  C26 UNL     1      67.477  57.603 -19.530  0.00  0.00    +0.006 A 
ATOM     33  C27 UNL     1      66.391  58.457 -19.810  0.00  0.00    +0.040 A 
ATOM     34  C29 UNL     1      65.128  58.128 -19.284  0.00  0.00    +0.006 A 
ATOM     35  C30 UNL     1      64.952  56.974 -18.515  0.00  0.00    +0.037 A 
BRANCH  33  36
ATOM     36  C28 UNL     1      66.572  59.674 -20.652  0.00  0.00    +0.208 A 
ATOM     37  N3  UNL     1      67.080  60.850 -20.225  0.00  0.00    -0.106 NA
ATOM     38  N4  UNL     1      67.061  61.654 -21.275  0.00  0.00    -0.021 NA
ATOM     39  N5  UNL     1      66.565  61.010 -22.319  0.00  0.00    -0.021 NA
ATOM     40  N6  UNL     1      66.249  59.776 -21.961  0.00  0.00    -0.106 NA
ENDBRANCH  33  36
ENDBRANCH  29  30
ENDBRANCH  28  29
ENDBRANCH  27  28
ENDBRANCH  26  27
ENDBRANCH  25  26
ENDBRANCH  24  25
ENDBRANCH   6  24
TORSDOF 11
ENDMDL
MODEL 2
REMARK VINA RESULT:      -6.8      5.492     10.105
REMARK  Name = ./data/4u7t_site_bc02/pdb/l0c1.pdb
REMARK  11 active torsions:
REMARK  status: ('A' for Active; 'I' for Inactive)
REMARK    1  A    between atoms: O1_2  and  C2_3
REMARK    2  A    between atoms: C5_6  and  C6_7
REMARK    3  A    between atoms: N2_9  and  C7_10
REMARK    4  A    between atoms: C19_23  and  O3_24
REMARK    5  A    between atoms: O3_24  and  C20_25
REMARK    6  A    between atoms: C20_25  and  C21_26
REMARK    7  A    between atoms: C21_26  and  C22_27
REMARK    8  A    between atoms: C22_27  and  C23_28
REMARK    9  A    between atoms: C23_28  and  O4_29
REMARK   10  A    between atoms: O4_29  and  C24_30
REMARK   11  A    between atoms: C27_33  and  C28_34
REMARK                            x       y       z     vdW  Elec       q    Type
REMARK                         _______ _______ _______ _____ _____    ______ ____
ROOT
ATOM      1  C2  UNL     1      65.650  64.984 -11.663  0.00  0.00    +0.172 A 
ATOM      2  C3  UNL     1      65.317  63.849 -12.420  0.00  0.00    +0.040 A 
ATOM      3  C4  UNL     1      64.914  62.669 -11.788  0.00  0.00    +0.005 A 
ATOM      4  C5  UNL     1      64.841  62.592 -10.387  0.00  0.00    +0.019 A 
ATOM      5  C18 UNL     1      65.129  63.744  -9.638  0.00  0.00    +0.041 A 
ATOM      6  C19 UNL     1      65.547  64.935 -10.264  0.00  0.00    +0.172 A 
ENDROOT
BRANCH   4   7
ATOM      7  C6  UNL     1      64.523  61.292  -9.733  0.00  0.00    +0.086 C 
ATOM      8  N1  UNL     1      63.783  60.407 -10.323  0.00  0.00    -0.171 NA
ATOM      9  N2  UNL     1      63.819  59.208  -9.610  0.00  0.00    -0.222 N 
ATOM     10  C14 UNL     1      64.583  59.330  -8.574  0.00  0.00    +0.257 C 
ATOM     11  O2  UNL     1      64.829  58.289  -7.682  0.00  0.00    -0.270 OA
ATOM     12  C15 UNL     1      65.147  60.718  -8.464  0.00  0.00    +0.110 C 
ATOM     13  C16 UNL     1      64.621  61.379  -7.177  0.00  0.00    +0.015 C 
ATOM     14  C17 UNL     1      66.686  60.681  -8.532  0.00  0.00    +0.015 C 
BRANCH   9  15
ATOM     15  C7  UNL     1      63.091  57.987  -9.991  0.00  0.00    +0.108 C 
ATOM     16  C8  UNL     1      63.057  57.807 -11.535  0.00  0.00    +0.024 C 
ATOM     17  C9  UNL     1      63.014  56.327 -11.952  0.00  0.00    +0.002 C 
ATOM     18  C10 UNL     1      61.643  55.667 -11.776  0.00  0.00    +0.000 C 
ATOM     19  C11 UNL     1      61.134  55.697 -10.325  0.00  0.00    +0.000 C 
ATOM     20  C12 UNL     1      60.617  57.090  -9.934  0.00  0.00    +0.002 C 
ATOM     21  C13 UNL     1      61.691  58.002  -9.318  0.00  0.00    +0.024 C 
ENDBRANCH   9  15
ENDBRANCH   4   7
BRANCH   1  23
ATOM     22  C1  UNL     1      65.431  66.826 -13.344  0.00  0.00    +0.253 C 
ATOM     23  O1  UNL     1      66.088  66.179 -12.260  0.00  0.00    -0.468 OA
ENDBRANCH   1  23
BRANCH   6  24
ATOM     24  O3  UNL     1      65.876  66.096  -9.534  0.00  0.00    -0.472 OA
BRANCH  24  25
ATOM     25  C20 UNL     1      66.687  66.132  -8.357  0.00  0.00    +0.206 C 
BRANCH  25  26
ATOM     26  C21 UNL     1      65.825  66.373  -7.110  0.00  0.00    +0.051 C 
BRANCH  26  27
ATOM     27  C22 UNL     1      64.540  67.127  -7.475  0.00  0.00    +0.051 C 
BRANCH  27  28
ATOM     28  C23 UNL     1      63.293  66.347  -7.050  0.00  0.00    +0.206 C 
BRANCH  28  29
ATOM     29  O4  UNL     1      62.245  66.528  -8.000  0.00  0.00    -0.475 OA
BRANCH  29  30
ATOM     30  C24 UNL     1      62.012  65.721  -9.127  0.00  0.00    +0.139 A 
ATOM     31  C25 UNL     1      61.665  64.360  -9.039  0.00  0.00    +0.037 A 
ATOM     32  C26 UNL     1      61.420  63.616 -10.199  0.00  0.00    +0.006 A 
ATOM     33  C27 UNL     1      61.525  64.211 -11.471  0.00  0.00    +0.040 A 
ATOM     34  C29 UNL     1      61.889  65.567 -11.549  0.00  0.00    +0.006 A 
ATOM     35  C30 UNL     1      62.125  66.312 -10.389  0.00  0.00    +0.037 A 
BRANCH  33  36
ATOM     36  C28 UNL     1      61.247  63.425 -12.709  0.00  0.00    +0.208 A 
ATOM     37  N3  UNL     1      61.824  62.248 -13.032  0.00  0.00    -0.106 NA
ATOM     38  N4  UNL     1      61.306  61.900 -14.199  0.00  0.00    -0.021 NA
ATOM     39  N5  UNL     1      60.439  62.819 -14.591  0.00  0.00    -0.021 NA
ATOM     40  N6  UNL     1      60.382  63.782 -13.685  0.00  0.00    -0.106 NA
ENDBRANCH  33  36
ENDBRANCH  29  30
ENDBRANCH  28  29
ENDBRANCH  27  28
ENDBRANCH  26  27
ENDBRANCH  25  26
ENDBRANCH  24  25
ENDBRANCH   6  24
TORSDOF 11
ENDMDL
MODEL 3
REMARK VINA RESULT:      -6.4      4.690      7.183
REMARK  Name = ./data/4u7t_site_bc02/pdb/l0c1.pdb
REMARK  11 active torsions:
REMARK  status: ('A' for Active; 'I' for Inactive)
REMARK    1  A    between atoms: O1_2  and  C2_3
REMARK    2  A    between atoms: C5_6  and  C6_7
REMARK    3  A    between atoms: N2_9  and  C7_10
REMARK    4  A    between atoms: C19_23  and  O3_24
REMARK    5  A    between atoms: O3_24  and  C20_25
REMARK    6  A    between atoms: C20_25  and  C21_26
REMARK    7  A    between atoms: C21_26  and  C22_27
REMARK    8  A    between atoms: C22_27  and  C23_28
REMARK    9  A    between atoms: C23_28  and  O4_29
REMARK   10  A    between atoms: O4_29  and  C24_30
REMARK   11  A    between atoms: C27_33  and  C28_34
REMARK                            x       y       z     vdW  Elec       q    Type
REMARK                         _______ _______ _______ _____ _____    ______ ____
ROOT
ATOM      1  C2  UNL     1      62.708  59.456 -10.345  0.00  0.00    +0.172 A 
ATOM      2  C3  UNL     1      62.282  59.688 -11.663  0.00  0.00    +0.040 A 
ATOM      3  C4  UNL     1      62.415  60.955 -12.237  0.00  0.00    +0.005 A 
ATOM      4  C5  UNL     1      62.969  62.021 -11.508  0.00  0.00    +0.019 A 
ATOM      5  C18 UNL     1      63.437  61.771 -10.208  0.00  0.00    +0.041 A 
ATOM      6  C19 UNL     1      63.297  60.500  -9.616  0.00  0.00    +0.172 A 
ENDROOT
BRANCH   4   7
ATOM      7  C6  UNL     1      62.993  63.388 -12.099  0.00  0.00    +0.086 C 
ATOM      8  N1  UNL     1      63.994  63.792 -12.817  0.00  0.00    -0.171 NA
ATOM      9  N2  UNL     1      63.679  65.005 -13.430  0.00  0.00    -0.222 N 
ATOM     10  C14 UNL     1      62.481  65.368 -13.105  0.00  0.00    +0.257 C 
ATOM     11  O2  UNL     1      61.884  66.533 -13.581  0.00  0.00    -0.270 OA
ATOM     12  C15 UNL     1      61.844  64.390 -12.161  0.00  0.00    +0.110 C 
ATOM     13  C16 UNL     1      61.575  65.086 -10.815  0.00  0.00    +0.015 C 
ATOM     14  C17 UNL     1      60.573  63.786 -12.788  0.00  0.00    +0.015 C 
BRANCH   9  15
ATOM     15  C7  UNL     1      64.585  65.754 -14.315  0.00  0.00    +0.108 C 
ATOM     16  C8  UNL     1      64.066  65.763 -15.780  0.00  0.00    +0.024 C 
ATOM     17  C9  UNL     1      64.474  67.037 -16.539  0.00  0.00    +0.002 C 
ATOM     18  C10 UNL     1      65.939  67.056 -16.987  0.00  0.00    +0.000 C 
ATOM     19  C11 UNL     1      66.934  66.940 -15.820  0.00  0.00    +0.000 C 
ATOM     20  C12 UNL     1      67.019  65.502 -15.287  0.00  0.00    +0.002 C 
ATOM     21  C13 UNL     1      66.027  65.200 -14.151  0.00  0.00    +0.024 C 
ENDBRANCH   9  15
ENDBRANCH   4   7
BRANCH   1  23
ATOM     22  C1  UNL     1      61.362  57.740  -9.116  0.00  0.00    +0.253 C 
ATOM     23  O1  UNL     1      62.563  58.204  -9.722  0.00  0.00    -0.468 OA
ENDBRANCH   1  23
BRANCH   6  24
ATOM     24  O3  UNL     1      63.725  60.230  -8.299  0.00  0.00    -0.472 OA
BRANCH  24  25
ATOM     25  C20 UNL     1      65.070  59.946  -7.908  0.00  0.00    +0.206 C 
BRANCH  25  26
ATOM     26  C21 UNL     1      65.274  58.435  -7.721  0.00  0.00    +0.051 C 
BRANCH  26  27
ATOM     27  C22 UNL     1      66.487  57.948  -8.524  0.00  0.00    +0.051 C 
BRANCH  27  28
ATOM     28  C23 UNL     1      66.421  56.438  -8.773  0.00  0.00    +0.206 C 
BRANCH  28  29
ATOM     29  O4  UNL     1      65.605  56.157  -9.910  0.00  0.00    -0.475 OA
BRANCH  29  30
ATOM     30  C24 UNL     1      65.981  55.372 -11.014  0.00  0.00    +0.139 A 
ATOM     31  C25 UNL     1      65.231  54.270 -11.463  0.00  0.00    +0.037 A 
ATOM     32  C26 UNL     1      65.645  53.543 -12.585  0.00  0.00    +0.006 A 
ATOM     33  C27 UNL     1      66.819  53.895 -13.278  0.00  0.00    +0.040 A 
ATOM     34  C29 UNL     1      67.570  54.990 -12.811  0.00  0.00    +0.006 A 
ATOM     35  C30 UNL     1      67.152  55.720 -11.695  0.00  0.00    +0.037 A 
BRANCH  33  36
ATOM     36  C28 UNL     1      67.253  53.134 -14.486  0.00  0.00    +0.208 A 
ATOM     37  N3  UNL     1      67.688  51.857 -14.489  0.00  0.00    -0.106 NA
ATOM     38  N4  UNL     1      67.972  51.574 -15.750  0.00  0.00    -0.021 NA
ATOM     39  N5  UNL     1      67.724  52.630 -16.507  0.00  0.00    -0.021 NA
ATOM     40  N6  UNL     1      67.277  53.617 -15.749  0.00  0.00    -0.106 NA
ENDBRANCH  33  36
ENDBRANCH  29  30
ENDBRANCH  28  29
ENDBRANCH  27  28
ENDBRANCH  26  27
ENDBRANCH  25  26
ENDBRANCH  24  25
ENDBRANCH   6  24
TORSDOF 11
ENDMDL
MODEL 4
REMARK VINA RESULT:      -6.2      4.738      9.222
REMARK  Name = ./data/4u7t_site_bc02/pdb/l0c1.pdb
REMARK  11 active torsions:
REMARK  status: ('A' for Active; 'I' for Inactive)
REMARK    1  A    between atoms: O1_2  and  C2_3
REMARK    2  A    between atoms: C5_6  and  C6_7
REMARK    3  A    between atoms: N2_9  and  C7_10
REMARK    4  A    between atoms: C19_23  and  O3_24
REMARK    5  A    between atoms: O3_24  and  C20_25
REMARK    6  A    between atoms: C20_25  and  C21_26
REMARK    7  A    between atoms: C21_26  and  C22_27
REMARK    8  A    between atoms: C22_27  and  C23_28
REMARK    9  A    between atoms: C23_28  and  O4_29
REMARK   10  A    between atoms: O4_29  and  C24_30
REMARK   11  A    between atoms: C27_33  and  C28_34
REMARK                            x       y       z     vdW  Elec       q    Type
REMARK                         _______ _______ _______ _____ _____    ______ ____
ROOT
ATOM      1  C2  UNL     1      61.769  64.883 -12.544  0.00  0.00    +0.172 A 
ATOM      2  C3  UNL     1      62.007  63.716 -13.289  0.00  0.00    +0.040 A 
ATOM      3  C4  UNL     1      62.260  62.503 -12.644  0.00  0.00    +0.005 A 
ATOM      4  C5  UNL     1      62.290  62.426 -11.240  0.00  0.00    +0.019 A 
ATOM      5  C18 UNL     1      62.003  63.586 -10.501  0.00  0.00    +0.041 A 
ATOM      6  C19 UNL     1      61.758  64.816 -11.142  0.00  0.00    +0.172 A 
ENDROOT
BRANCH   4   7
ATOM      7  C6  UNL     1      62.677  61.151 -10.577  0.00  0.00    +0.086 C 
ATOM      8  N1  UNL     1      62.350  60.004 -11.084  0.00  0.00    -0.171 NA
ATOM      9  N2  UNL     1      63.012  58.979 -10.406  0.00  0.00    -0.222 N 
ATOM     10  C14 UNL     1      63.760  59.475  -9.474  0.00  0.00    +0.257 C 
ATOM     11  O2  UNL     1      64.557  58.693  -8.642  0.00  0.00    -0.270 OA
ATOM     12  C15 UNL     1      63.644  60.971  -9.411  0.00  0.00    +0.110 C 
ATOM     13  C16 UNL     1      63.040  61.376  -8.054  0.00  0.00    +0.015 C 
ATOM     14  C17 UNL     1      65.012  61.628  -9.677  0.00  0.00    +0.015 C 
BRANCH   9  15
ATOM     15  C7  UNL     1      62.873  57.548 -10.714  0.00  0.00    +0.108 C 
ATOM     16  C8  UNL     1      63.948  57.081 -11.736  0.00  0.00    +0.024 C 
ATOM     17  C9  UNL     1      64.342  55.608 -11.541  0.00  0.00    +0.002 C 
ATOM     18  C10 UNL     1      63.309  54.608 -12.069  0.00  0.00    +0.000 C 
ATOM     19  C11 UNL     1      61.928  54.752 -11.408  0.00  0.00    +0.000 C 
ATOM     20  C12 UNL     1      61.164  55.970 -11.948  0.00  0.00    +0.002 C 
ATOM     21  C13 UNL     1      61.410  57.263 -11.151  0.00  0.00    +0.024 C 
ENDBRANCH   9  15
ENDBRANCH   4   7
BRANCH   1  23
ATOM     22  C1  UNL     1      62.564  67.044 -13.524  0.00  0.00    +0.253 C 
ATOM     23  O1  UNL     1      61.540  66.127 -13.156  0.00  0.00    -0.468 OA
ENDBRANCH   1  23
BRANCH   6  24
ATOM     24  O3  UNL     1      61.503  66.003 -10.424  0.00  0.00    -0.472 OA
BRANCH  24  25
ATOM     25  C20 UNL     1      61.541  66.134  -9.001  0.00  0.00    +0.206 C 
BRANCH  25  26
ATOM     26  C21 UNL     1      62.898  66.687  -8.542  0.00  0.00    +0.051 C 
BRANCH  26  27
ATOM     27  C22 UNL     1      63.778  65.564  -7.978  0.00  0.00    +0.051 C 
BRANCH  27  28
ATOM     28  C23 UNL     1      64.947  65.247  -8.914  0.00  0.00    +0.206 C 
BRANCH  28  29
ATOM     29  O4  UNL     1      64.908  66.093 -10.063  0.00  0.00    -0.475 OA
BRANCH  29  30
ATOM     30  C24 UNL     1      65.526  65.828 -11.296  0.00  0.00    +0.139 A 
ATOM     31  C25 UNL     1      65.358  64.619 -11.997  0.00  0.00    +0.037 A 
ATOM     32  C26 UNL     1      65.981  64.426 -13.235  0.00  0.00    +0.006 A 
ATOM     33  C27 UNL     1      66.792  65.431 -13.798  0.00  0.00    +0.040 A 
ATOM     34  C29 UNL     1      66.967  66.630 -13.082  0.00  0.00    +0.006 A 
ATOM     35  C30 UNL     1      66.338  66.824 -11.849  0.00  0.00    +0.037 A 
BRANCH  33  36
ATOM     36  C28 UNL     1      67.442  65.236 -15.126  0.00  0.00    +0.208 A 
ATOM     37  N3  UNL     1      68.759  65.017 -15.325  0.00  0.00    -0.106 NA
ATOM     38  N4  UNL     1      68.913  64.905 -16.635  0.00  0.00    -0.021 NA
ATOM     39  N5  UNL     1      67.741  65.046 -17.232  0.00  0.00    -0.021 NA
ATOM     40  N6  UNL     1      66.806  65.255 -16.320  0.00  0.00    -0.106 NA
ENDBRANCH  33  36
ENDBRANCH  29  30
ENDBRANCH  28  29
ENDBRANCH  27  28
ENDBRANCH  26  27
ENDBRANCH  25  26
ENDBRANCH  24  25
ENDBRANCH   6  24
TORSDOF 11
ENDMDL
MODEL 5
REMARK VINA RESULT:      -5.9      5.392     10.226
REMARK  Name = ./data/4u7t_site_bc02/pdb/l0c1.pdb
REMARK  11 active torsions:
REMARK  status: ('A' for Active; 'I' for Inactive)
REMARK    1  A    between atoms: O1_2  and  C2_3
REMARK    2  A    between atoms: C5_6  and  C6_7
REMARK    3  A    between atoms: N2_9  and  C7_10
REMARK    4  A    between atoms: C19_23  and  O3_24
REMARK    5  A    between atoms: O3_24  and  C20_25
REMARK    6  A    between atoms: C20_25  and  C21_26
REMARK    7  A    between atoms: C21_26  and  C22_27
REMARK    8  A    between atoms: C22_27  and  C23_28
REMARK    9  A    between atoms: C23_28  and  O4_29
REMARK   10  A    between atoms: O4_29  and  C24_30
REMARK   11  A    between atoms: C27_33  and  C28_34
REMARK                            x       y       z     vdW  Elec       q    Type
REMARK                         _______ _______ _______ _____ _____    ______ ____
ROOT
ATOM      1  C2  UNL     1      59.789  52.402  -8.880  0.00  0.00    +0.172 A 
ATOM      2  C3  UNL     1      59.827  51.022  -8.625  0.00  0.00    +0.040 A 
ATOM      3  C4  UNL     1      60.472  50.156  -9.512  0.00  0.00    +0.005 A 
ATOM      4  C5  UNL     1      61.087  50.645 -10.677  0.00  0.00    +0.019 A 
ATOM      5  C18 UNL     1      61.087  52.032 -10.901  0.00  0.00    +0.041 A 
ATOM      6  C19 UNL     1      60.430  52.912 -10.019  0.00  0.00    +0.172 A 
ENDROOT
BRANCH   4   7
ATOM      7  C6  UNL     1      61.665  49.693 -11.665  0.00  0.00    +0.086 C 
ATOM      8  N1  UNL     1      60.977  49.280 -12.682  0.00  0.00    -0.171 NA
ATOM      9  N2  UNL     1      61.804  48.583 -13.564  0.00  0.00    -0.222 N 
ATOM     10  C14 UNL     1      63.015  48.558 -13.109  0.00  0.00    +0.257 C 
ATOM     11  O2  UNL     1      64.069  47.947 -13.786  0.00  0.00    -0.270 OA
ATOM     12  C15 UNL     1      63.121  49.252 -11.782  0.00  0.00    +0.110 C 
ATOM     13  C16 UNL     1      63.533  48.230 -10.707  0.00  0.00    +0.015 C 
ATOM     14  C17 UNL     1      64.090  50.446 -11.875  0.00  0.00    +0.015 C 
BRANCH   9  15
ATOM     15  C7  UNL     1      61.355  47.970 -14.823  0.00  0.00    +0.108 C 
ATOM     16  C8  UNL     1      61.442  48.977 -16.005  0.00  0.00    +0.024 C 
ATOM     17  C9  UNL     1      61.718  48.281 -17.349  0.00  0.00    +0.002 C 
ATOM     18  C10 UNL     1      60.498  47.577 -17.951  0.00  0.00    +0.000 C 
ATOM     19  C11 UNL     1      59.913  46.486 -17.039  0.00  0.00    +0.000 C 
ATOM     20  C12 UNL     1      59.109  47.088 -15.877  0.00  0.00    +0.002 C 
ATOM     21  C13 UNL     1      59.945  47.353 -14.613  0.00  0.00    +0.024 C 
ENDBRANCH   9  15
ENDBRANCH   4   7
BRANCH   1  23
ATOM     22  C1  UNL     1      59.389  53.439  -6.636  0.00  0.00    +0.253 C 
ATOM     23  O1  UNL     1      59.124  53.302  -8.028  0.00  0.00    -0.468 OA
ENDBRANCH   1  23
BRANCH   6  24
ATOM     24  O3  UNL     1      60.383  54.304 -10.239  0.00  0.00    -0.472 OA
BRANCH  24  25
ATOM     25  C20 UNL     1      61.388  55.240  -9.840  0.00  0.00    +0.206 C 
BRANCH  25  26
ATOM     26  C21 UNL     1      60.795  56.650  -9.703  0.00  0.00    +0.051 C 
BRANCH  26  27
ATOM     27  C22 UNL     1      61.862  57.717  -9.979  0.00  0.00    +0.051 C 
BRANCH  27  28
ATOM     28  C23 UNL     1      62.503  57.521 -11.356  0.00  0.00    +0.206 C 
BRANCH  28  29
ATOM     29  O4  UNL     1      63.874  57.149 -11.217  0.00  0.00    -0.475 OA
BRANCH  29  30
ATOM     30  C24 UNL     1      64.552  56.210 -12.012  0.00  0.00    +0.139 A 
ATOM     31  C25 UNL     1      64.297  56.039 -13.386  0.00  0.00    +0.037 A 
ATOM     32  C26 UNL     1      65.025  55.104 -14.130  0.00  0.00    +0.006 A 
ATOM     33  C27 UNL     1      66.017  54.313 -13.519  0.00  0.00    +0.040 A 
ATOM     34  C29 UNL     1      66.254  54.480 -12.142  0.00  0.00    +0.006 A 
ATOM     35  C30 UNL     1      65.532  55.421 -11.401  0.00  0.00    +0.037 A 
BRANCH  33  36
ATOM     36  C28 UNL     1      66.808  53.329 -14.313  0.00  0.00    +0.208 A 
ATOM     37  N3  UNL     1      67.211  53.500 -15.591  0.00  0.00    -0.106 NA
ATOM     38  N4  UNL     1      67.872  52.400 -15.912  0.00  0.00    -0.021 NA
ATOM     39  N5  UNL     1      67.887  51.574 -14.879  0.00  0.00    -0.021 NA
ATOM     40  N6  UNL     1      67.230  52.123 -13.870  0.00  0.00    -0.106 NA
ENDBRANCH  33  36
ENDBRANCH  29  30
ENDBRANCH  28  29
ENDBRANCH  27  28
ENDBRANCH  26  27
ENDBRANCH  25  26
ENDBRANCH  24  25
ENDBRANCH   6  24
TORSDOF 11
ENDMDL
MODEL 6
REMARK VINA RESULT:      -5.7      5.665     10.514
REMARK  Name = ./data/4u7t_site_bc02/pdb/l0c1.pdb
REMARK  11 active torsions:
REMARK  status: ('A' for Active; 'I' for Inactive)
REMARK    1  A    between atoms: O1_2  and  C2_3
REMARK    2  A    between atoms: C5_6  and  C6_7
REMARK    3  A    between atoms: N2_9  and  C7_10
REMARK    4  A    between atoms: C19_23  and  O3_24
REMARK    5  A    between atoms: O3_24  and  C20_25
REMARK    6  A    between atoms: C20_25  and  C21_26
REMARK    7  A    between atoms: C21_26  and  C22_27
REMARK    8  A    between atoms: C22_27  and  C23_28
REMARK    9  A    between atoms: C23_28  and  O4_29
REMARK   10  A    between atoms: O4_29  and  C24_30
REMARK   11  A    between atoms: C27_33  and  C28_34
REMARK                            x       y       z     vdW  Elec       q    Type
REMARK                         _______ _______ _______ _____ _____    ______ ____
ROOT
ATOM      1  C2  UNL     1      60.205  52.694  -8.695  0.00  0.00    +0.172 A 
ATOM      2  C3  UNL     1      59.837  51.339  -8.673  0.00  0.00    +0.040 A 
ATOM      3  C4  UNL     1      60.419  50.432  -9.561  0.00  0.00    +0.005 A 
ATOM      4  C5  UNL     1      61.378  50.856 -10.498  0.00  0.00    +0.019 A 
ATOM      5  C18 UNL     1      61.777  52.202 -10.483  0.00  0.00    +0.041 A 
ATOM      6  C19 UNL     1      61.187  53.127  -9.599  0.00  0.00    +0.172 A 
ENDROOT
BRANCH   4   7
ATOM      7  C6  UNL     1      61.898  49.896 -11.511  0.00  0.00    +0.086 C 
ATOM      8  N1  UNL     1      61.142  49.451 -12.465  0.00  0.00    -0.171 NA
ATOM      9  N2  UNL     1      61.913  48.754 -13.395  0.00  0.00    -0.222 N 
ATOM     10  C14 UNL     1      63.155  48.760 -13.035  0.00  0.00    +0.257 C 
ATOM     11  O2  UNL     1      64.167  48.158 -13.780  0.00  0.00    -0.270 OA
ATOM     12  C15 UNL     1      63.349  49.481 -11.733  0.00  0.00    +0.110 C 
ATOM     13  C16 UNL     1      63.863  48.487 -10.675  0.00  0.00    +0.015 C 
ATOM     14  C17 UNL     1      64.283  50.692 -11.920  0.00  0.00    +0.015 C 
BRANCH   9  15
ATOM     15  C7  UNL     1      61.381  48.110 -14.606  0.00  0.00    +0.108 C 
ATOM     16  C8  UNL     1      61.305  49.110 -15.793  0.00  0.00    +0.024 C 
ATOM     17  C9  UNL     1      61.490  48.421 -17.155  0.00  0.00    +0.002 C 
ATOM     18  C10 UNL     1      60.258  47.649 -17.639  0.00  0.00    +0.000 C 
ATOM     19  C11 UNL     1      59.819  46.536 -16.673  0.00  0.00    +0.000 C 
ATOM     20  C12 UNL     1      59.097  47.103 -15.443  0.00  0.00    +0.002 C 
ATOM     21  C13 UNL     1      60.032  47.421 -14.263  0.00  0.00    +0.024 C 
ENDBRANCH   9  15
ENDBRANCH   4   7
BRANCH   1  23
ATOM     22  C1  UNL     1      59.982  53.828  -6.475  0.00  0.00    +0.253 C 
ATOM     23  O1  UNL     1      59.620  53.642  -7.839  0.00  0.00    -0.468 OA
ENDBRANCH   1  23
BRANCH   6  24
ATOM     24  O3  UNL     1      61.543  54.492  -9.587  0.00  0.00    -0.472 OA
BRANCH  24  25
ATOM     25  C20 UNL     1      61.145  55.460 -10.560  0.00  0.00    +0.206 C 
BRANCH  25  26
ATOM     26  C21 UNL     1      61.088  56.863  -9.939  0.00  0.00    +0.051 C 
BRANCH  26  27
ATOM     27  C22 UNL     1      61.170  57.942 -11.027  0.00  0.00    +0.051 C 
BRANCH  27  28
ATOM     28  C23 UNL     1      62.524  58.656 -11.004  0.00  0.00    +0.206 C 
BRANCH  28  29
ATOM     29  O4  UNL     1      62.394  59.948 -10.411  0.00  0.00    -0.475 OA
BRANCH  29  30
ATOM     30  C24 UNL     1      62.390  61.170 -11.104  0.00  0.00    +0.139 A 
ATOM     31  C25 UNL     1      62.032  61.283 -12.461  0.00  0.00    +0.037 A 
ATOM     32  C26 UNL     1      62.022  62.534 -13.089  0.00  0.00    +0.006 A 
ATOM     33  C27 UNL     1      62.377  63.698 -12.379  0.00  0.00    +0.040 A 
ATOM     34  C29 UNL     1      62.748  63.573 -11.028  0.00  0.00    +0.006 A 
ATOM     35  C30 UNL     1      62.750  62.323 -10.400  0.00  0.00    +0.037 A 
BRANCH  33  36
ATOM     36  C28 UNL     1      62.349  65.036 -13.040  0.00  0.00    +0.208 A 
ATOM     37  N3  UNL     1      61.618  66.093 -12.630  0.00  0.00    -0.106 NA
ATOM     38  N4  UNL     1      61.877  67.067 -13.488  0.00  0.00    -0.021 NA
ATOM     39  N5  UNL     1      62.737  66.639 -14.397  0.00  0.00    -0.021 NA
ATOM     40  N6  UNL     1      63.047  65.377 -14.147  0.00  0.00    -0.106 NA
ENDBRANCH  33  36
ENDBRANCH  29  30
ENDBRANCH  28  29
ENDBRANCH  27  28
ENDBRANCH  26  27
ENDBRANCH  25  26
ENDBRANCH  24  25
ENDBRANCH   6  24
TORSDOF 11
ENDMDL
MODEL 7
REMARK VINA RESULT:      -5.7      5.466     10.551
REMARK  Name = ./data/4u7t_site_bc02/pdb/l0c1.pdb
REMARK  11 active torsions:
REMARK  status: ('A' for Active; 'I' for Inactive)
REMARK    1  A    between atoms: O1_2  and  C2_3
REMARK    2  A    between atoms: C5_6  and  C6_7
REMARK    3  A    between atoms: N2_9  and  C7_10
REMARK    4  A    between atoms: C19_23  and  O3_24
REMARK    5  A    between atoms: O3_24  and  C20_25
REMARK    6  A    between atoms: C20_25  and  C21_26
REMARK    7  A    between atoms: C21_26  and  C22_27
REMARK    8  A    between atoms: C22_27  and  C23_28
REMARK    9  A    between atoms: C23_28  and  O4_29
REMARK   10  A    between atoms: O4_29  and  C24_30
REMARK   11  A    between atoms: C27_33  and  C28_34
REMARK                            x       y       z     vdW  Elec       q    Type
REMARK                         _______ _______ _______ _____ _____    ______ ____
ROOT
ATOM      1  C2  UNL     1      60.656  54.981  -8.304  0.00  0.00    +0.172 A 
ATOM      2  C3  UNL     1      60.197  54.218  -7.217  0.00  0.00    +0.040 A 
ATOM      3  C4  UNL     1      59.708  52.925  -7.416  0.00  0.00    +0.005 A 
ATOM      4  C5  UNL     1      59.659  52.364  -8.704  0.00  0.00    +0.019 A 
ATOM      5  C18 UNL     1      60.163  53.113  -9.779  0.00  0.00    +0.041 A 
ATOM      6  C19 UNL     1      60.648  54.422  -9.591  0.00  0.00    +0.172 A 
ENDROOT
BRANCH   4   7
ATOM      7  C6  UNL     1      59.027  51.031  -8.907  0.00  0.00    +0.086 C 
ATOM      8  N1  UNL     1      58.919  50.511 -10.089  0.00  0.00    -0.171 NA
ATOM      9  N2  UNL     1      58.503  49.184  -9.988  0.00  0.00    -0.222 N 
ATOM     10  C14 UNL     1      58.350  48.860  -8.745  0.00  0.00    +0.257 C 
ATOM     11  O2  UNL     1      57.958  47.589  -8.333  0.00  0.00    -0.270 OA
ATOM     12  C15 UNL     1      58.638  50.018  -7.834  0.00  0.00    +0.110 C 
ATOM     13  C16 UNL     1      57.353  50.400  -7.077  0.00  0.00    +0.015 C 
ATOM     14  C17 UNL     1      59.811  49.683  -6.892  0.00  0.00    +0.015 C 
BRANCH   9  15
ATOM     15  C7  UNL     1      58.273  48.290 -11.134  0.00  0.00    +0.108 C 
ATOM     16  C8  UNL     1      59.193  48.658 -12.332  0.00  0.00    +0.024 C 
ATOM     17  C9  UNL     1      59.554  47.435 -13.192  0.00  0.00    +0.002 C 
ATOM     18  C10 UNL     1      58.426  46.965 -14.116  0.00  0.00    +0.000 C 
ATOM     19  C11 UNL     1      57.145  46.571 -13.362  0.00  0.00    +0.000 C 
ATOM     20  C12 UNL     1      56.365  47.805 -12.883  0.00  0.00    +0.002 C 
ATOM     21  C13 UNL     1      56.757  48.280 -11.473  0.00  0.00    +0.024 C 
ENDBRANCH   9  15
ENDBRANCH   4   7
BRANCH   1  23
ATOM     22  C1  UNL     1      60.290  57.435  -7.976  0.00  0.00    +0.253 C 
ATOM     23  O1  UNL     1      61.126  56.297  -8.148  0.00  0.00    -0.468 OA
ENDBRANCH   1  23
BRANCH   6  24
ATOM     24  O3  UNL     1      61.127  55.210 -10.658  0.00  0.00    -0.472 OA
BRANCH  24  25
ATOM     25  C20 UNL     1      62.447  55.150 -11.205  0.00  0.00    +0.206 C 
BRANCH  25  26
ATOM     26  C21 UNL     1      62.765  56.424 -12.000  0.00  0.00    +0.051 C 
BRANCH  26  27
ATOM     27  C22 UNL     1      63.161  57.567 -11.058  0.00  0.00    +0.051 C 
BRANCH  27  28
ATOM     28  C23 UNL     1      62.067  58.635 -10.984  0.00  0.00    +0.206 C 
BRANCH  28  29
ATOM     29  O4  UNL     1      62.580  59.834 -10.403  0.00  0.00    -0.475 OA
BRANCH  29  30
ATOM     30  C24 UNL     1      62.592  61.099 -11.014  0.00  0.00    +0.139 A 
ATOM     31  C25 UNL     1      63.274  62.206 -10.475  0.00  0.00    +0.037 A 
ATOM     32  C26 UNL     1      63.270  63.435 -11.146  0.00  0.00    +0.006 A 
ATOM     33  C27 UNL     1      62.580  63.588 -12.364  0.00  0.00    +0.040 A 
ATOM     34  C29 UNL     1      61.889  62.479 -12.887  0.00  0.00    +0.006 A 
ATOM     35  C30 UNL     1      61.900  61.250 -12.220  0.00  0.00    +0.037 A 
BRANCH  33  36
ATOM     36  C28 UNL     1      62.590  64.890 -13.091  0.00  0.00    +0.208 A 
ATOM     37  N3  UNL     1      63.628  65.379 -13.803  0.00  0.00    -0.106 NA
ATOM     38  N4  UNL     1      63.225  66.548 -14.274  0.00  0.00    -0.021 NA
ATOM     39  N5  UNL     1      61.986  66.782 -13.876  0.00  0.00    -0.021 NA
ATOM     40  N6  UNL     1      61.564  65.770 -13.136  0.00  0.00    -0.106 NA
ENDBRANCH  33  36
ENDBRANCH  29  30
ENDBRANCH  28  29
ENDBRANCH  27  28
ENDBRANCH  26  27
ENDBRANCH  25  26
ENDBRANCH  24  25
ENDBRANCH   6  24
TORSDOF 11
ENDMDL
MODEL 8
REMARK VINA RESULT:      -5.5      5.204      6.425
REMARK  Name = ./data/4u7t_site_bc02/pdb/l0c1.pdb
REMARK  11 active torsions:
REMARK  status: ('A' for Active; 'I' for Inactive)
REMARK    1  A    between atoms: O1_2  and  C2_3
REMARK    2  A    between atoms: C5_6  and  C6_7
REMARK    3  A    between atoms: N2_9  and  C7_10
REMARK    4  A    between atoms: C19_23  and  O3_24
REMARK    5  A    between atoms: O3_24  and  C20_25
REMARK    6  A    between atoms: C20_25  and  C21_26
REMARK    7  A    between atoms: C21_26  and  C22_27
REMARK    8  A    between atoms: C22_27  and  C23_28
REMARK    9  A    between atoms: C23_28  and  O4_29
REMARK   10  A    between atoms: O4_29  and  C24_30
REMARK   11  A    between atoms: C27_33  and  C28_34
REMARK                            x       y       z     vdW  Elec       q    Type
REMARK                         _______ _______ _______ _____ _____    ______ ____
ROOT
ATOM      1  C2  UNL     1      61.928  55.666 -11.640  0.00  0.00    +0.172 A 
ATOM      2  C3  UNL     1      62.926  56.363 -12.341  0.00  0.00    +0.040 A 
ATOM      3  C4  UNL     1      63.412  57.580 -11.857  0.00  0.00    +0.005 A 
ATOM      4  C5  UNL     1      62.909  58.135 -10.668  0.00  0.00    +0.019 A 
ATOM      5  C18 UNL     1      61.946  57.410  -9.947  0.00  0.00    +0.041 A 
ATOM      6  C19 UNL     1      61.441  56.187 -10.432  0.00  0.00    +0.172 A 
ENDROOT
BRANCH   4   7
ATOM      7  C6  UNL     1      63.357  59.487 -10.234  0.00  0.00    +0.086 C 
ATOM      8  N1  UNL     1      63.082  60.542 -10.935  0.00  0.00    -0.171 NA
ATOM      9  N2  UNL     1      63.413  61.690 -10.213  0.00  0.00    -0.222 N 
ATOM     10  C14 UNL     1      63.891  61.364  -9.057  0.00  0.00    +0.257 C 
ATOM     11  O2  UNL     1      64.292  62.302  -8.107  0.00  0.00    -0.270 OA
ATOM     12  C15 UNL     1      63.962  59.874  -8.888  0.00  0.00    +0.110 C 
ATOM     13  C16 UNL     1      65.434  59.449  -8.741  0.00  0.00    +0.015 C 
ATOM     14  C17 UNL     1      63.088  59.424  -7.701  0.00  0.00    +0.015 C 
BRANCH   9  15
ATOM     15  C7  UNL     1      63.238  63.065 -10.705  0.00  0.00    +0.108 C 
ATOM     16  C8  UNL     1      61.734  63.452 -10.784  0.00  0.00    +0.024 C 
ATOM     17  C9  UNL     1      61.501  64.955 -10.555  0.00  0.00    +0.002 C 
ATOM     18  C10 UNL     1      61.860  65.833 -11.757  0.00  0.00    +0.000 C 
ATOM     19  C11 UNL     1      63.331  65.708 -12.187  0.00  0.00    +0.000 C 
ATOM     20  C12 UNL     1      63.591  64.399 -12.947  0.00  0.00    +0.002 C 
ATOM     21  C13 UNL     1      64.010  63.227 -12.043  0.00  0.00    +0.024 C 
ENDBRANCH   9  15
ENDBRANCH   4   7
BRANCH   1  23
ATOM     22  C1  UNL     1      62.024  53.611 -13.067  0.00  0.00    +0.253 C 
ATOM     23  O1  UNL     1      61.392  54.454 -12.110  0.00  0.00    -0.468 OA
ENDBRANCH   1  23
BRANCH   6  24
ATOM     24  O3  UNL     1      60.447  55.457  -9.747  0.00  0.00    -0.472 OA
BRANCH  24  25
ATOM     25  C20 UNL     1      60.378  55.281  -8.330  0.00  0.00    +0.206 C 
BRANCH  25  26
ATOM     26  C21 UNL     1      61.649  54.599  -7.804  0.00  0.00    +0.051 C 
BRANCH  26  27
ATOM     27  C22 UNL     1      61.688  53.124  -8.223  0.00  0.00    +0.051 C 
BRANCH  27  28
ATOM     28  C23 UNL     1      63.108  52.683  -8.586  0.00  0.00    +0.206 C 
BRANCH  28  29
ATOM     29  O4  UNL     1      63.481  53.208  -9.860  0.00  0.00    -0.475 OA
BRANCH  29  30
ATOM     30  C24 UNL     1      64.674  53.893 -10.146  0.00  0.00    +0.139 A 
ATOM     31  C25 UNL     1      65.053  55.081  -9.492  0.00  0.00    +0.037 A 
ATOM     32  C26 UNL     1      66.268  55.703  -9.804  0.00  0.00    +0.006 A 
ATOM     33  C27 UNL     1      67.126  55.159 -10.779  0.00  0.00    +0.040 A 
ATOM     34  C29 UNL     1      66.730  53.980 -11.437  0.00  0.00    +0.006 A 
ATOM     35  C30 UNL     1      65.520  53.355 -11.120  0.00  0.00    +0.037 A 
BRANCH  33  36
ATOM     36  C28 UNL     1      68.430  55.809 -11.100  0.00  0.00    +0.208 A 
ATOM     37  N3  UNL     1      69.062  55.743 -12.291  0.00  0.00    -0.106 NA
ATOM     38  N4  UNL     1      70.175  56.445 -12.148  0.00  0.00    -0.021 NA
ATOM     39  N5  UNL     1      70.238  56.932 -10.920  0.00  0.00    -0.021 NA
ATOM     40  N6  UNL     1      69.167  56.551 -10.243  0.00  0.00    -0.106 NA
ENDBRANCH  33  36
ENDBRANCH  29  30
ENDBRANCH  28  29
ENDBRANCH  27  28
ENDBRANCH  26  27
ENDBRANCH  25  26
ENDBRANCH  24  25
ENDBRANCH   6  24
TORSDOF 11
ENDMDL
MODEL 9
REMARK VINA RESULT:      -5.4      5.090      6.117
REMARK  Name = ./data/4u7t_site_bc02/pdb/l0c1.pdb
REMARK  11 active torsions:
REMARK  status: ('A' for Active; 'I' for Inactive)
REMARK    1  A    between atoms: O1_2  and  C2_3
REMARK    2  A    between atoms: C5_6  and  C6_7
REMARK    3  A    between atoms: N2_9  and  C7_10
REMARK    4  A    between atoms: C19_23  and  O3_24
REMARK    5  A    between atoms: O3_24  and  C20_25
REMARK    6  A    between atoms: C20_25  and  C21_26
REMARK    7  A    between atoms: C21_26  and  C22_27
REMARK    8  A    between atoms: C22_27  and  C23_28
REMARK    9  A    between atoms: C23_28  and  O4_29
REMARK   10  A    between atoms: O4_29  and  C24_30
REMARK   11  A    between atoms: C27_33  and  C28_34
REMARK                            x       y       z     vdW  Elec       q    Type
REMARK                         _______ _______ _______ _____ _____    ______ ____
ROOT
ATOM      1  C2  UNL     1      61.849  54.843 -10.385  0.00  0.00    +0.172 A 
ATOM      2  C3  UNL     1      60.887  55.840 -10.158  0.00  0.00    +0.040 A 
ATOM      3  C4  UNL     1      61.254  57.187 -10.134  0.00  0.00    +0.005 A 
ATOM      4  C5  UNL     1      62.593  57.572 -10.329  0.00  0.00    +0.019 A 
ATOM      5  C18 UNL     1      63.542  56.574 -10.603  0.00  0.00    +0.041 A 
ATOM      6  C19 UNL     1      63.183  55.212 -10.618  0.00  0.00    +0.172 A 
ENDROOT
BRANCH   4   7
ATOM      7  C6  UNL     1      62.980  59.002 -10.182  0.00  0.00    +0.086 C 
ATOM      8  N1  UNL     1      62.607  59.891 -11.049  0.00  0.00    -0.171 NA
ATOM      9  N2  UNL     1      62.904  61.169 -10.575  0.00  0.00    -0.222 N 
ATOM     10  C14 UNL     1      63.461  61.092  -9.410  0.00  0.00    +0.257 C 
ATOM     11  O2  UNL     1      63.852  62.211  -8.678  0.00  0.00    -0.270 OA
ATOM     12  C15 UNL     1      63.629  59.666  -8.972  0.00  0.00    +0.110 C 
ATOM     13  C16 UNL     1      65.130  59.350  -8.840  0.00  0.00    +0.015 C 
ATOM     14  C17 UNL     1      62.846  59.406  -7.671  0.00  0.00    +0.015 C 
BRANCH   9  15
ATOM     15  C7  UNL     1      62.622  62.417 -11.302  0.00  0.00    +0.108 C 
ATOM     16  C8  UNL     1      61.659  63.335 -10.498  0.00  0.00    +0.024 C 
ATOM     17  C9  UNL     1      61.904  64.828 -10.776  0.00  0.00    +0.002 C 
ATOM     18  C10 UNL     1      61.352  65.312 -12.121  0.00  0.00    +0.000 C 
ATOM     19  C11 UNL     1      61.947  64.569 -13.328  0.00  0.00    +0.000 C 
ATOM     20  C12 UNL     1      61.348  63.163 -13.482  0.00  0.00    +0.002 C 
ATOM     21  C13 UNL     1      62.127  62.069 -12.733  0.00  0.00    +0.024 C 
ENDBRANCH   9  15
ENDBRANCH   4   7
BRANCH   1  23
ATOM     22  C1  UNL     1      60.808  52.819 -11.427  0.00  0.00    +0.253 C 
ATOM     23  O1  UNL     1      61.524  53.475 -10.387  0.00  0.00    -0.468 OA
ENDBRANCH   1  23
BRANCH   6  24
ATOM     24  O3  UNL     1      64.123  54.187 -10.855  0.00  0.00    -0.472 OA
BRANCH  24  25
ATOM     25  C20 UNL     1      65.321  54.323 -11.623  0.00  0.00    +0.206 C 
BRANCH  25  26
ATOM     26  C21 UNL     1      65.284  53.408 -12.855  0.00  0.00    +0.051 C 
BRANCH  26  27
ATOM     27  C22 UNL     1      66.158  52.166 -12.635  0.00  0.00    +0.051 C 
BRANCH  27  28
ATOM     28  C23 UNL     1      67.344  52.139 -13.602  0.00  0.00    +0.206 C 
BRANCH  28  29
ATOM     29  O4  UNL     1      68.554  52.451 -12.913  0.00  0.00    -0.475 OA
BRANCH  29  30
ATOM     30  C24 UNL     1      68.778  53.595 -12.128  0.00  0.00    +0.139 A 
ATOM     31  C25 UNL     1      68.801  54.899 -12.659  0.00  0.00    +0.037 A 
ATOM     32  C26 UNL     1      69.003  56.001 -11.820  0.00  0.00    +0.006 A 
ATOM     33  C27 UNL     1      69.195  55.826 -10.436  0.00  0.00    +0.040 A 
ATOM     34  C29 UNL     1      69.185  54.518  -9.917  0.00  0.00    +0.006 A 
ATOM     35  C30 UNL     1      68.976  53.418 -10.755  0.00  0.00    +0.037 A 
BRANCH  33  36
ATOM     36  C28 UNL     1      69.391  57.000  -9.536  0.00  0.00    +0.208 A 
ATOM     37  N3  UNL     1      68.424  57.593  -8.805  0.00  0.00    -0.106 NA
ATOM     38  N4  UNL     1      69.015  58.586  -8.161  0.00  0.00    -0.021 NA
ATOM     39  N5  UNL     1      70.300  58.614  -8.473  0.00  0.00    -0.021 NA
ATOM     40  N6  UNL     1      70.564  57.641  -9.329  0.00  0.00    -0.106 NA
ENDBRANCH  33  36
ENDBRANCH  29  30
ENDBRANCH  28  29
ENDBRANCH  27  28
ENDBRANCH  26  27
ENDBRANCH  25  26
ENDBRANCH  24  25
ENDBRANCH   6  24
TORSDOF 11
ENDMDL
