MODEL 1
REMARK VINA RESULT:      -7.5      0.000      0.000
REMARK  Name = ./data/4u7t_site_bc02/pdb/l1c2.pdb
REMARK  11 active torsions:
REMARK  status: ('A' for Active; 'I' for Inactive)
REMARK    1  A    between atoms: O1_2  and  C2_3
REMARK    2  A    between atoms: C5_6  and  C6_7
REMARK    3  A    between atoms: N2_9  and  C7_10
REMARK    4  A    between atoms: C22_26  and  O3_27
REMARK    5  A    between atoms: O3_27  and  C23_28
REMARK    6  A    between atoms: C23_28  and  C24_29
REMARK    7  A    between atoms: C24_29  and  C25_30
REMARK    8  A    between atoms: C25_30  and  C26_31
REMARK    9  A    between atoms: C26_31  and  O4_32
REMARK   10  A    between atoms: O4_32  and  C27_33
REMARK   11  A    between atoms: C30_36  and  C31_37
REMARK                            x       y       z     vdW  Elec       q    Type
REMARK                         _______ _______ _______ _____ _____    ______ ____
ROOT
ATOM      1  C2  UNL     1      61.973  55.821 -12.223  0.00  0.00    +0.172 A 
ATOM      2  C3  UNL     1      61.100  56.557 -11.397  0.00  0.00    +0.040 A 
ATOM      3  C4  UNL     1      61.565  57.663 -10.684  0.00  0.00    +0.005 A 
ATOM      4  C5  UNL     1      62.903  58.063 -10.796  0.00  0.00    +0.018 A 
ATOM      5  C21 UNL     1      63.783  57.310 -11.587  0.00  0.00    +0.041 A 
ATOM      6  C22 UNL     1      63.322  56.199 -12.318  0.00  0.00    +0.172 A 
ENDROOT
BRANCH   4   7
ATOM      7  C6  UNL     1      63.413  59.249 -10.083  0.00  0.00    +0.079 C 
ATOM      8  N1  UNL     1      63.374  60.393 -10.703  0.00  0.00    -0.172 NA
ATOM      9  N2  UNL     1      63.634  61.633 -10.073  0.00  0.00    -0.222 N 
ATOM     10  C14 UNL     1      64.183  61.665  -8.875  0.00  0.00    +0.253 C 
ATOM     11  O2  UNL     1      64.423  62.875  -8.220  0.00  0.00    -0.271 OA
ATOM     12  C15 UNL     1      64.593  60.378  -8.201  0.00  0.00    +0.091 C 
ATOM     13  C16 UNL     1      66.032  60.011  -8.613  0.00  0.00    +0.035 C 
ATOM     14  C17 UNL     1      66.398  58.587  -8.292  0.00  0.00    -0.030 C 
ATOM     15  C18 UNL     1      65.482  57.630  -8.091  0.00  0.00    -0.030 C 
ATOM     16  C19 UNL     1      64.017  57.933  -7.925  0.00  0.00    +0.032 C 
ATOM     17  C20 UNL     1      63.597  59.267  -8.575  0.00  0.00    +0.056 C 
BRANCH   9  18
ATOM     18  C7  UNL     1      63.184  62.844 -10.790  0.00  0.00    +0.108 C 
ATOM     19  C8  UNL     1      61.648  62.861 -10.959  0.00  0.00    +0.024 C 
ATOM     20  C9  UNL     1      61.117  64.141 -11.628  0.00  0.00    +0.002 C 
ATOM     21  C10 UNL     1      61.375  64.152 -13.145  0.00  0.00    +0.000 C 
ATOM     22  C11 UNL     1      62.728  64.763 -13.563  0.00  0.00    +0.000 C 
ATOM     23  C12 UNL     1      63.922  64.471 -12.635  0.00  0.00    +0.002 C 
ATOM     24  C13 UNL     1      63.974  63.025 -12.109  0.00  0.00    +0.024 C 
ENDBRANCH   9  18
ENDBRANCH   4   7
BRANCH   1  26
ATOM     25  C1  UNL     1      61.607  53.364 -12.529  0.00  0.00    +0.253 C 
ATOM     26  O1  UNL     1      61.536  54.717 -12.972  0.00  0.00    -0.468 OA
ENDBRANCH   1  26
BRANCH   6  27
ATOM     27  O3  UNL     1      64.167  55.457 -13.162  0.00  0.00    -0.472 OA
BRANCH  27  28
ATOM     28  C23 UNL     1      65.246  54.635 -12.718  0.00  0.00    +0.206 C 
BRANCH  28  29
ATOM     29  C24 UNL     1      66.182  54.324 -13.885  0.00  0.00    +0.051 C 
BRANCH  29  30
ATOM     30  C25 UNL     1      65.673  54.958 -15.187  0.00  0.00    +0.051 C 
BRANCH  30  31
ATOM     31  C26 UNL     1      66.402  54.384 -16.408  0.00  0.00    +0.206 C 
BRANCH  31  32
ATOM     32  O4  UNL     1      65.740  54.767 -17.616  0.00  0.00    -0.475 OA
BRANCH  32  33
ATOM     33  C27 UNL     1      65.914  55.992 -18.285  0.00  0.00    +0.139 A 
ATOM     34  C28 UNL     1      64.848  56.871 -18.564  0.00  0.00    +0.037 A 
ATOM     35  C29 UNL     1      65.077  58.061 -19.262  0.00  0.00    +0.006 A 
ATOM     36  C30 UNL     1      66.374  58.403 -19.678  0.00  0.00    +0.040 A 
ATOM     37  C32 UNL     1      67.436  57.532 -19.385  0.00  0.00    +0.006 A 
ATOM     38  C33 UNL     1      67.206  56.339 -18.696  0.00  0.00    +0.037 A 
BRANCH  36  39
ATOM     39  C31 UNL     1      66.617  59.664 -20.412  0.00  0.00    +0.208 A 
ATOM     40  N3  UNL     1      67.062  60.811 -19.858  0.00  0.00    -0.106 NA
ATOM     41  N4  UNL     1      67.130  61.685 -20.847  0.00  0.00    -0.021 NA
ATOM     42  N5  UNL     1      66.749  61.110 -21.974  0.00  0.00    -0.021 NA
ATOM     43  N6  UNL     1      66.422  59.851 -21.736  0.00  0.00    -0.106 NA
ENDBRANCH  36  39
ENDBRANCH  32  33
ENDBRANCH  31  32
ENDBRANCH  30  31
ENDBRANCH  29  30
ENDBRANCH  28  29
ENDBRANCH  27  28
ENDBRANCH   6  27
TORSDOF 11
ENDMDL
MODEL 2
REMARK VINA RESULT:      -6.1      5.036      8.299
REMARK  Name = ./data/4u7t_site_bc02/pdb/l1c2.pdb
REMARK  11 active torsions:
REMARK  status: ('A' for Active; 'I' for Inactive)
REMARK    1  A    between atoms: O1_2  and  C2_3
REMARK    2  A    between atoms: C5_6  and  C6_7
REMARK    3  A    between atoms: N2_9  and  C7_10
REMARK    4  A    between atoms: C22_26  and  O3_27
REMARK    5  A    between atoms: O3_27  and  C23_28
REMARK    6  A    between atoms: C23_28  and  C24_29
REMARK    7  A    between atoms: C24_29  and  C25_30
REMARK    8  A    between atoms: C25_30  and  C26_31
REMARK    9  A    between atoms: C26_31  and  O4_32
REMARK   10  A    between atoms: O4_32  and  C27_33
REMARK   11  A    between atoms: C30_36  and  C31_37
REMARK                            x       y       z     vdW  Elec       q    Type
REMARK                         _______ _______ _______ _____ _____    ______ ____
ROOT
ATOM      1  C2  UNL     1      69.490  63.203 -11.921  0.00  0.00    +0.172 A 
ATOM      2  C3  UNL     1      68.642  63.412 -13.026  0.00  0.00    +0.040 A 
ATOM      3  C4  UNL     1      67.255  63.415 -12.864  0.00  0.00    +0.005 A 
ATOM      4  C5  UNL     1      66.693  63.227 -11.595  0.00  0.00    +0.018 A 
ATOM      5  C21 UNL     1      67.534  62.981 -10.498  0.00  0.00    +0.041 A 
ATOM      6  C22 UNL     1      68.933  62.985 -10.650  0.00  0.00    +0.172 A 
ENDROOT
BRANCH   4   7
ATOM      7  C6  UNL     1      65.234  63.263 -11.388  0.00  0.00    +0.079 C 
ATOM      8  N1  UNL     1      64.613  62.126 -11.252  0.00  0.00    -0.172 NA
ATOM      9  N2  UNL     1      63.262  62.018 -10.845  0.00  0.00    -0.222 N 
ATOM     10  C14 UNL     1      62.486  63.083 -10.831  0.00  0.00    +0.253 C 
ATOM     11  O2  UNL     1      61.158  63.008 -10.406  0.00  0.00    -0.271 OA
ATOM     12  C15 UNL     1      63.023  64.410 -11.311  0.00  0.00    +0.091 C 
ATOM     13  C16 UNL     1      62.808  64.539 -12.831  0.00  0.00    +0.035 C 
ATOM     14  C17 UNL     1      63.617  65.643 -13.456  0.00  0.00    -0.030 C 
ATOM     15  C18 UNL     1      64.711  66.157 -12.877  0.00  0.00    -0.030 C 
ATOM     16  C19 UNL     1      65.091  65.857 -11.452  0.00  0.00    +0.032 C 
ATOM     17  C20 UNL     1      64.512  64.521 -10.940  0.00  0.00    +0.056 C 
BRANCH   9  18
ATOM     18  C7  UNL     1      62.821  60.690 -10.370  0.00  0.00    +0.108 C 
ATOM     19  C8  UNL     1      63.841  60.074  -9.388  0.00  0.00    +0.024 C 
ATOM     20  C9  UNL     1      63.393  58.724  -8.800  0.00  0.00    +0.002 C 
ATOM     21  C10 UNL     1      63.536  57.574  -9.812  0.00  0.00    +0.000 C 
ATOM     22  C11 UNL     1      62.299  57.343 -10.703  0.00  0.00    +0.000 C 
ATOM     23  C12 UNL     1      61.541  58.605 -11.154  0.00  0.00    +0.002 C 
ATOM     24  C13 UNL     1      62.453  59.776 -11.565  0.00  0.00    +0.024 C 
ENDBRANCH   9  18
ENDBRANCH   4   7
BRANCH   1  26
ATOM     25  C1  UNL     1      71.632  62.336 -12.883  0.00  0.00    +0.253 C 
ATOM     26  O1  UNL     1      70.889  63.214 -12.042  0.00  0.00    -0.468 OA
ENDBRANCH   1  26
BRANCH   6  27
ATOM     27  O3  UNL     1      69.803  62.795  -9.561  0.00  0.00    -0.472 OA
BRANCH  27  28
ATOM     28  C23 UNL     1      69.945  61.576  -8.834  0.00  0.00    +0.206 C 
BRANCH  28  29
ATOM     29  C24 UNL     1      70.663  60.534  -9.693  0.00  0.00    +0.051 C 
BRANCH  29  30
ATOM     30  C25 UNL     1      70.523  59.129  -9.089  0.00  0.00    +0.051 C 
BRANCH  30  31
ATOM     31  C26 UNL     1      70.971  58.050 -10.082  0.00  0.00    +0.206 C 
BRANCH  31  32
ATOM     32  O4  UNL     1      70.305  56.814  -9.817  0.00  0.00    -0.475 OA
BRANCH  32  33
ATOM     33  C27 UNL     1      69.104  56.393 -10.416  0.00  0.00    +0.139 A 
ATOM     34  C28 UNL     1      69.039  55.878 -11.727  0.00  0.00    +0.037 A 
ATOM     35  C29 UNL     1      67.811  55.506 -12.280  0.00  0.00    +0.006 A 
ATOM     36  C30 UNL     1      66.628  55.624 -11.532  0.00  0.00    +0.040 A 
ATOM     37  C32 UNL     1      66.698  56.123 -10.221  0.00  0.00    +0.006 A 
ATOM     38  C33 UNL     1      67.924  56.503  -9.671  0.00  0.00    +0.037 A 
BRANCH  36  39
ATOM     39  C31 UNL     1      65.329  55.225 -12.117  0.00  0.00    +0.208 A 
ATOM     40  N3  UNL     1      64.795  55.739 -13.245  0.00  0.00    -0.106 NA
ATOM     41  N4  UNL     1      63.635  55.125 -13.405  0.00  0.00    -0.021 NA
ATOM     42  N5  UNL     1      63.452  54.261 -12.423  0.00  0.00    -0.021 NA
ATOM     43  N6  UNL     1      64.489  54.300 -11.603  0.00  0.00    -0.106 NA
ENDBRANCH  36  39
ENDBRANCH  32  33
ENDBRANCH  31  32
ENDBRANCH  30  31
ENDBRANCH  29  30
ENDBRANCH  28  29
ENDBRANCH  27  28
ENDBRANCH   6  27
TORSDOF 11
ENDMDL
MODEL 3
REMARK VINA RESULT:      -6.1      4.347      7.528
REMARK  Name = ./data/4u7t_site_bc02/pdb/l1c2.pdb
REMARK  11 active torsions:
REMARK  status: ('A' for Active; 'I' for Inactive)
REMARK    1  A    between atoms: O1_2  and  C2_3
REMARK    2  A    between atoms: C5_6  and  C6_7
REMARK    3  A    between atoms: N2_9  and  C7_10
REMARK    4  A    between atoms: C22_26  and  O3_27
REMARK    5  A    between atoms: O3_27  and  C23_28
REMARK    6  A    between atoms: C23_28  and  C24_29
REMARK    7  A    between atoms: C24_29  and  C25_30
REMARK    8  A    between atoms: C25_30  and  C26_31
REMARK    9  A    between atoms: C26_31  and  O4_32
REMARK   10  A    between atoms: O4_32  and  C27_33
REMARK   11  A    between atoms: C30_36  and  C31_37
REMARK                            x       y       z     vdW  Elec       q    Type
REMARK                         _______ _______ _______ _____ _____    ______ ____
ROOT
ATOM      1  C2  UNL     1      62.254  55.000 -12.492  0.00  0.00    +0.172 A 
ATOM      2  C3  UNL     1      61.191  55.753 -11.955  0.00  0.00    +0.040 A 
ATOM      3  C4  UNL     1      61.440  56.951 -11.283  0.00  0.00    +0.005 A 
ATOM      4  C5  UNL     1      62.752  57.426 -11.151  0.00  0.00    +0.018 A 
ATOM      5  C21 UNL     1      63.816  56.660 -11.651  0.00  0.00    +0.041 A 
ATOM      6  C22 UNL     1      63.574  55.456 -12.339  0.00  0.00    +0.172 A 
ENDROOT
BRANCH   4   7
ATOM      7  C6  UNL     1      63.042  58.706 -10.478  0.00  0.00    +0.079 C 
ATOM      8  N1  UNL     1      63.133  59.773 -11.219  0.00  0.00    -0.172 NA
ATOM      9  N2  UNL     1      63.200  61.085 -10.693  0.00  0.00    -0.222 N 
ATOM     10  C14 UNL     1      63.433  61.274  -9.410  0.00  0.00    +0.253 C 
ATOM     11  O2  UNL     1      63.475  62.558  -8.862  0.00  0.00    -0.271 OA
ATOM     12  C15 UNL     1      63.692  60.089  -8.510  0.00  0.00    +0.091 C 
ATOM     13  C16 UNL     1      65.196  59.753  -8.513  0.00  0.00    +0.035 C 
ATOM     14  C17 UNL     1      65.503  58.393  -7.948  0.00  0.00    -0.030 C 
ATOM     15  C18 UNL     1      64.587  57.418  -7.867  0.00  0.00    -0.030 C 
ATOM     16  C19 UNL     1      63.120  57.662  -8.100  0.00  0.00    +0.032 C 
ATOM     17  C20 UNL     1      62.845  58.895  -8.984  0.00  0.00    +0.056 C 
BRANCH   9  18
ATOM     18  C7  UNL     1      62.915  62.188 -11.634  0.00  0.00    +0.108 C 
ATOM     19  C8  UNL     1      64.157  63.079 -11.853  0.00  0.00    +0.024 C 
ATOM     20  C9  UNL     1      63.940  64.197 -12.888  0.00  0.00    +0.002 C 
ATOM     21  C10 UNL     1      63.097  65.354 -12.323  0.00  0.00    +0.000 C 
ATOM     22  C11 UNL     1      61.575  65.192 -12.508  0.00  0.00    +0.000 C 
ATOM     23  C12 UNL     1      61.020  63.762 -12.361  0.00  0.00    +0.002 C 
ATOM     24  C13 UNL     1      61.643  62.959 -11.204  0.00  0.00    +0.024 C 
ENDBRANCH   9  18
ENDBRANCH   4   7
BRANCH   1  26
ATOM     25  C1  UNL     1      61.934  52.520 -12.581  0.00  0.00    +0.253 C 
ATOM     26  O1  UNL     1      62.040  53.803 -13.193  0.00  0.00    -0.468 OA
ENDBRANCH   1  26
BRANCH   6  27
ATOM     27  O3  UNL     1      64.614  54.694 -12.899  0.00  0.00    -0.472 OA
BRANCH  27  28
ATOM     28  C23 UNL     1      65.866  55.220 -13.337  0.00  0.00    +0.206 C 
BRANCH  28  29
ATOM     29  C24 UNL     1      66.943  54.953 -12.286  0.00  0.00    +0.051 C 
BRANCH  29  30
ATOM     30  C25 UNL     1      66.647  53.664 -11.506  0.00  0.00    +0.051 C 
BRANCH  30  31
ATOM     31  C26 UNL     1      66.198  53.971 -10.072  0.00  0.00    +0.206 C 
BRANCH  31  32
ATOM     32  O4  UNL     1      65.532  52.844  -9.501  0.00  0.00    -0.475 OA
BRANCH  32  33
ATOM     33  C27 UNL     1      64.147  52.749  -9.269  0.00  0.00    +0.139 A 
ATOM     34  C28 UNL     1      63.450  51.524  -9.282  0.00  0.00    +0.037 A 
ATOM     35  C29 UNL     1      62.067  51.496  -9.077  0.00  0.00    +0.006 A 
ATOM     36  C30 UNL     1      61.359  52.685  -8.838  0.00  0.00    +0.040 A 
ATOM     37  C32 UNL     1      62.059  53.902  -8.811  0.00  0.00    +0.006 A 
ATOM     38  C33 UNL     1      63.439  53.932  -9.024  0.00  0.00    +0.037 A 
BRANCH  36  39
ATOM     39  C31 UNL     1      59.896  52.655  -8.616  0.00  0.00    +0.208 A 
ATOM     40  N3  UNL     1      59.053  53.680  -8.859  0.00  0.00    -0.106 NA
ATOM     41  N4  UNL     1      57.852  53.245  -8.518  0.00  0.00    -0.021 NA
ATOM     42  N5  UNL     1      57.937  52.000  -8.085  0.00  0.00    -0.021 NA
ATOM     43  N6  UNL     1      59.198  51.603  -8.134  0.00  0.00    -0.106 NA
ENDBRANCH  36  39
ENDBRANCH  32  33
ENDBRANCH  31  32
ENDBRANCH  30  31
ENDBRANCH  29  30
ENDBRANCH  28  29
ENDBRANCH  27  28
ENDBRANCH   6  27
TORSDOF 11
ENDMDL
MODEL 4
REMARK VINA RESULT:      -5.9      6.380     10.228
REMARK  Name = ./data/4u7t_site_bc02/pdb/l1c2.pdb
REMARK  11 active torsions:
REMARK  status: ('A' for Active; 'I' for Inactive)
REMARK    1  A    between atoms: O1_2  and  C2_3
REMARK    2  A    between atoms: C5_6  and  C6_7
REMARK    3  A    between atoms: N2_9  and  C7_10
REMARK    4  A    between atoms: C22_26  and  O3_27
REMARK    5  A    between atoms: O3_27  and  C23_28
REMARK    6  A    between atoms: C23_28  and  C24_29
REMARK    7  A    between atoms: C24_29  and  C25_30
REMARK    8  A    between atoms: C25_30  and  C26_31
REMARK    9  A    between atoms: C26_31  and  O4_32
REMARK   10  A    between atoms: O4_32  and  C27_33
REMARK   11  A    between atoms: C30_36  and  C31_37
REMARK                            x       y       z     vdW  Elec       q    Type
REMARK                         _______ _______ _______ _____ _____    ______ ____
ROOT
ATOM      1  C2  UNL     1      70.095  63.184 -11.291  0.00  0.00    +0.172 A 
ATOM      2  C3  UNL     1      69.683  62.664 -12.534  0.00  0.00    +0.040 A 
ATOM      3  C4  UNL     1      68.648  63.271 -13.247  0.00  0.00    +0.005 A 
ATOM      4  C5  UNL     1      68.020  64.417 -12.741  0.00  0.00    +0.018 A 
ATOM      5  C21 UNL     1      68.402  64.915 -11.486  0.00  0.00    +0.041 A 
ATOM      6  C22 UNL     1      69.451  64.315 -10.763  0.00  0.00    +0.172 A 
ENDROOT
BRANCH   4   7
ATOM      7  C6  UNL     1      66.949  65.101 -13.489  0.00  0.00    +0.079 C 
ATOM      8  N1  UNL     1      65.717  64.807 -13.189  0.00  0.00    -0.172 NA
ATOM      9  N2  UNL     1      64.601  65.529 -13.675  0.00  0.00    -0.222 N 
ATOM     10  C14 UNL     1      64.746  66.384 -14.668  0.00  0.00    +0.253 C 
ATOM     11  O2  UNL     1      63.666  67.129 -15.146  0.00  0.00    -0.271 OA
ATOM     12  C15 UNL     1      66.093  66.545 -15.330  0.00  0.00    +0.091 C 
ATOM     13  C16 UNL     1      66.235  65.522 -16.474  0.00  0.00    +0.035 C 
ATOM     14  C17 UNL     1      67.653  65.357 -16.953  0.00  0.00    -0.030 C 
ATOM     15  C18 UNL     1      68.713  65.700 -16.208  0.00  0.00    -0.030 C 
ATOM     16  C19 UNL     1      68.590  66.499 -14.940  0.00  0.00    +0.032 C 
ATOM     17  C20 UNL     1      67.202  66.373 -14.278  0.00  0.00    +0.056 C 
BRANCH   9  18
ATOM     18  C7  UNL     1      63.324  65.330 -12.959  0.00  0.00    +0.108 C 
ATOM     19  C8  UNL     1      63.307  66.090 -11.613  0.00  0.00    +0.024 C 
ATOM     20  C9  UNL     1      61.968  65.983 -10.862  0.00  0.00    +0.002 C 
ATOM     21  C10 UNL     1      61.786  64.608 -10.194  0.00  0.00    +0.000 C 
ATOM     22  C11 UNL     1      61.117  63.542 -11.084  0.00  0.00    +0.000 C 
ATOM     23  C12 UNL     1      61.494  63.569 -12.577  0.00  0.00    +0.002 C 
ATOM     24  C13 UNL     1      62.989  63.823 -12.846  0.00  0.00    +0.024 C 
ENDBRANCH   9  18
ENDBRANCH   4   7
BRANCH   1  26
ATOM     25  C1  UNL     1      71.326  61.212 -10.363  0.00  0.00    +0.253 C 
ATOM     26  O1  UNL     1      71.147  62.613 -10.556  0.00  0.00    -0.468 OA
ENDBRANCH   1  26
BRANCH   6  27
ATOM     27  O3  UNL     1      69.894  64.823  -9.529  0.00  0.00    -0.472 OA
BRANCH  27  28
ATOM     28  C23 UNL     1      69.988  66.209  -9.204  0.00  0.00    +0.206 C 
BRANCH  28  29
ATOM     29  C24 UNL     1      68.864  66.599  -8.244  0.00  0.00    +0.051 C 
BRANCH  29  30
ATOM     30  C25 UNL     1      68.553  65.459  -7.264  0.00  0.00    +0.051 C 
BRANCH  30  31
ATOM     31  C26 UNL     1      67.041  65.251  -7.115  0.00  0.00    +0.206 C 
BRANCH  31  32
ATOM     32  O4  UNL     1      66.438  65.004  -8.387  0.00  0.00    -0.475 OA
BRANCH  32  33
ATOM     33  C27 UNL     1      65.558  63.947  -8.679  0.00  0.00    +0.139 A 
ATOM     34  C28 UNL     1      64.517  63.554  -7.813  0.00  0.00    +0.037 A 
ATOM     35  C29 UNL     1      63.694  62.473  -8.142  0.00  0.00    +0.006 A 
ATOM     36  C30 UNL     1      63.881  61.776  -9.346  0.00  0.00    +0.040 A 
ATOM     37  C32 UNL     1      64.909  62.180 -10.214  0.00  0.00    +0.006 A 
ATOM     38  C33 UNL     1      65.738  63.254  -9.882  0.00  0.00    +0.037 A 
BRANCH  36  39
ATOM     39  C31 UNL     1      63.006  60.636  -9.696  0.00  0.00    +0.208 A 
ATOM     40  N3  UNL     1      62.539  59.719  -8.823  0.00  0.00    -0.106 NA
ATOM     41  N4  UNL     1      61.814  58.878  -9.540  0.00  0.00    -0.021 NA
ATOM     42  N5  UNL     1      61.823  59.252 -10.806  0.00  0.00    -0.021 NA
ATOM     43  N6  UNL     1      62.557  60.344 -10.937  0.00  0.00    -0.106 NA
ENDBRANCH  36  39
ENDBRANCH  32  33
ENDBRANCH  31  32
ENDBRANCH  30  31
ENDBRANCH  29  30
ENDBRANCH  28  29
ENDBRANCH  27  28
ENDBRANCH   6  27
TORSDOF 11
ENDMDL
MODEL 5
REMARK VINA RESULT:      -5.9      5.530      9.553
REMARK  Name = ./data/4u7t_site_bc02/pdb/l1c2.pdb
REMARK  11 active torsions:
REMARK  status: ('A' for Active; 'I' for Inactive)
REMARK    1  A    between atoms: O1_2  and  C2_3
REMARK    2  A    between atoms: C5_6  and  C6_7
REMARK    3  A    between atoms: N2_9  and  C7_10
REMARK    4  A    between atoms: C22_26  and  O3_27
REMARK    5  A    between atoms: O3_27  and  C23_28
REMARK    6  A    between atoms: C23_28  and  C24_29
REMARK    7  A    between atoms: C24_29  and  C25_30
REMARK    8  A    between atoms: C25_30  and  C26_31
REMARK    9  A    between atoms: C26_31  and  O4_32
REMARK   10  A    between atoms: O4_32  and  C27_33
REMARK   11  A    between atoms: C30_36  and  C31_37
REMARK                            x       y       z     vdW  Elec       q    Type
REMARK                         _______ _______ _______ _____ _____    ______ ____
ROOT
ATOM      1  C2  UNL     1      62.183  64.705 -12.599  0.00  0.00    +0.172 A 
ATOM      2  C3  UNL     1      61.167  64.255 -11.733  0.00  0.00    +0.040 A 
ATOM      3  C4  UNL     1      61.422  63.236 -10.813  0.00  0.00    +0.005 A 
ATOM      4  C5  UNL     1      62.698  62.663 -10.730  0.00  0.00    +0.018 A 
ATOM      5  C21 UNL     1      63.701  63.083 -11.617  0.00  0.00    +0.041 A 
ATOM      6  C22 UNL     1      63.457  64.116 -12.542  0.00  0.00    +0.172 A 
ENDROOT
BRANCH   4   7
ATOM      7  C6  UNL     1      63.005  61.612  -9.743  0.00  0.00    +0.079 C 
ATOM      8  N1  UNL     1      62.610  60.400 -10.005  0.00  0.00    -0.172 NA
ATOM      9  N2  UNL     1      63.011  59.268  -9.257  0.00  0.00    -0.222 N 
ATOM     10  C14 UNL     1      63.608  59.421  -8.091  0.00  0.00    +0.253 C 
ATOM     11  O2  UNL     1      64.039  58.321  -7.348  0.00  0.00    -0.271 OA
ATOM     12  C15 UNL     1      63.805  60.806  -7.525  0.00  0.00    +0.091 C 
ATOM     13  C16 UNL     1      62.567  61.212  -6.702  0.00  0.00    +0.035 C 
ATOM     14  C17 UNL     1      62.509  62.686  -6.403  0.00  0.00    -0.030 C 
ATOM     15  C18 UNL     1      63.181  63.598  -7.118  0.00  0.00    -0.030 C 
ATOM     16  C19 UNL     1      64.239  63.224  -8.120  0.00  0.00    +0.032 C 
ATOM     17  C20 UNL     1      64.069  61.794  -8.674  0.00  0.00    +0.056 C 
BRANCH   9  18
ATOM     18  C7  UNL     1      62.801  57.949  -9.891  0.00  0.00    +0.108 C 
ATOM     19  C8  UNL     1      64.047  57.501 -10.686  0.00  0.00    +0.024 C 
ATOM     20  C9  UNL     1      63.913  56.097 -11.301  0.00  0.00    +0.002 C 
ATOM     21  C10 UNL     1      63.006  56.093 -12.544  0.00  0.00    +0.000 C 
ATOM     22  C11 UNL     1      61.510  55.863 -12.249  0.00  0.00    +0.000 C 
ATOM     23  C12 UNL     1      60.963  56.512 -10.964  0.00  0.00    +0.002 C 
ATOM     24  C13 UNL     1      61.485  57.938 -10.706  0.00  0.00    +0.024 C 
ENDBRANCH   9  18
ENDBRANCH   4   7
BRANCH   1  26
ATOM     25  C1  UNL     1      61.979  67.129 -13.191  0.00  0.00    +0.253 C 
ATOM     26  O1  UNL     1      61.970  65.742 -13.522  0.00  0.00    -0.468 OA
ENDBRANCH   1  26
BRANCH   6  27
ATOM     27  O3  UNL     1      64.457  64.596 -13.406  0.00  0.00    -0.472 OA
BRANCH  27  28
ATOM     28  C23 UNL     1      65.742  65.054 -12.991  0.00  0.00    +0.206 C 
BRANCH  28  29
ATOM     29  C24 UNL     1      65.610  66.376 -12.235  0.00  0.00    +0.051 C 
BRANCH  29  30
ATOM     30  C25 UNL     1      65.930  66.195 -10.744  0.00  0.00    +0.051 C 
BRANCH  30  31
ATOM     31  C26 UNL     1      67.441  66.260 -10.488  0.00  0.00    +0.206 C 
BRANCH  31  32
ATOM     32  O4  UNL     1      67.746  65.817  -9.164  0.00  0.00    -0.475 OA
BRANCH  32  33
ATOM     33  C27 UNL     1      67.739  64.478  -8.733  0.00  0.00    +0.139 A 
ATOM     34  C28 UNL     1      67.824  64.110  -7.375  0.00  0.00    +0.037 A 
ATOM     35  C29 UNL     1      67.845  62.760  -7.009  0.00  0.00    +0.006 A 
ATOM     36  C30 UNL     1      67.764  61.756  -7.987  0.00  0.00    +0.040 A 
ATOM     37  C32 UNL     1      67.664  62.127  -9.338  0.00  0.00    +0.006 A 
ATOM     38  C33 UNL     1      67.652  63.475  -9.705  0.00  0.00    +0.037 A 
BRANCH  36  39
ATOM     39  C31 UNL     1      67.781  60.329  -7.599  0.00  0.00    +0.208 A 
ATOM     40  N3  UNL     1      67.079  59.793  -6.579  0.00  0.00    -0.106 NA
ATOM     41  N4  UNL     1      67.385  58.507  -6.569  0.00  0.00    -0.021 NA
ATOM     42  N5  UNL     1      68.238  58.247  -7.542  0.00  0.00    -0.021 NA
ATOM     43  N6  UNL     1      68.506  59.361  -8.202  0.00  0.00    -0.106 NA
ENDBRANCH  36  39
ENDBRANCH  32  33
ENDBRANCH  31  32
ENDBRANCH  30  31
ENDBRANCH  29  30
ENDBRANCH  28  29
ENDBRANCH  27  28
ENDBRANCH   6  27
TORSDOF 11
ENDMDL
MODEL 6
REMARK VINA RESULT:      -5.7      3.691      7.564
REMARK  Name = ./data/4u7t_site_bc02/pdb/l1c2.pdb
REMARK  11 active torsions:
REMARK  status: ('A' for Active; 'I' for Inactive)
REMARK    1  A    between atoms: O1_2  and  C2_3
REMARK    2  A    between atoms: C5_6  and  C6_7
REMARK    3  A    between atoms: N2_9  and  C7_10
REMARK    4  A    between atoms: C22_26  and  O3_27
REMARK    5  A    between atoms: O3_27  and  C23_28
REMARK    6  A    between atoms: C23_28  and  C24_29
REMARK    7  A    between atoms: C24_29  and  C25_30
REMARK    8  A    between atoms: C25_30  and  C26_31
REMARK    9  A    between atoms: C26_31  and  O4_32
REMARK   10  A    between atoms: O4_32  and  C27_33
REMARK   11  A    between atoms: C30_36  and  C31_37
REMARK                            x       y       z     vdW  Elec       q    Type
REMARK                         _______ _______ _______ _____ _____    ______ ____
ROOT
ATOM      1  C2  UNL     1      62.710  63.859 -12.789  0.00  0.00    +0.172 A 
ATOM      2  C3  UNL     1      61.626  63.201 -12.176  0.00  0.00    +0.040 A 
ATOM      3  C4  UNL     1      61.834  62.042 -11.425  0.00  0.00    +0.005 A 
ATOM      4  C5  UNL     1      63.129  61.532 -11.261  0.00  0.00    +0.018 A 
ATOM      5  C21 UNL     1      64.205  62.164 -11.901  0.00  0.00    +0.041 A 
ATOM      6  C22 UNL     1      64.007  63.338 -12.652  0.00  0.00    +0.172 A 
ENDROOT
BRANCH   4   7
ATOM      7  C6  UNL     1      63.383  60.331 -10.443  0.00  0.00    +0.079 C 
ATOM      8  N1  UNL     1      63.016  59.180 -10.927  0.00  0.00    -0.172 NA
ATOM      9  N2  UNL     1      63.381  57.939 -10.352  0.00  0.00    -0.222 N 
ATOM     10  C14 UNL     1      63.900  57.896  -9.142  0.00  0.00    +0.253 C 
ATOM     11  O2  UNL     1      64.294  56.688  -8.564  0.00  0.00    -0.271 OA
ATOM     12  C15 UNL     1      64.048  59.169  -8.342  0.00  0.00    +0.091 C 
ATOM     13  C16 UNL     1      62.757  59.434  -7.544  0.00  0.00    +0.035 C 
ATOM     14  C17 UNL     1      62.665  60.838  -7.010  0.00  0.00    -0.030 C 
ATOM     15  C18 UNL     1      63.373  61.856  -7.520  0.00  0.00    -0.030 C 
ATOM     16  C19 UNL     1      64.496  61.651  -8.500  0.00  0.00    +0.032 C 
ATOM     17  C20 UNL     1      64.375  60.333  -9.293  0.00  0.00    +0.056 C 
BRANCH   9  18
ATOM     18  C7  UNL     1      63.224  56.744 -11.208  0.00  0.00    +0.108 C 
ATOM     19  C8  UNL     1      64.061  56.862 -12.501  0.00  0.00    +0.024 C 
ATOM     20  C9  UNL     1      63.998  55.610 -13.392  0.00  0.00    +0.002 C 
ATOM     21  C10 UNL     1      62.665  55.507 -14.155  0.00  0.00    +0.000 C 
ATOM     22  C11 UNL     1      61.549  54.755 -13.403  0.00  0.00    +0.000 C 
ATOM     23  C12 UNL     1      61.487  54.975 -11.880  0.00  0.00    +0.002 C 
ATOM     24  C13 UNL     1      61.726  56.432 -11.442  0.00  0.00    +0.024 C 
ENDBRANCH   9  18
ENDBRANCH   4   7
BRANCH   1  26
ATOM     25  C1  UNL     1      62.170  66.296 -12.975  0.00  0.00    +0.253 C 
ATOM     26  O1  UNL     1      62.542  65.039 -13.533  0.00  0.00    -0.468 OA
ENDBRANCH   1  26
BRANCH   6  27
ATOM     27  O3  UNL     1      65.073  64.024 -13.261  0.00  0.00    -0.472 OA
BRANCH  27  28
ATOM     28  C23 UNL     1      65.879  65.011 -12.620  0.00  0.00    +0.206 C 
BRANCH  28  29
ATOM     29  C24 UNL     1      66.983  64.338 -11.805  0.00  0.00    +0.051 C 
BRANCH  29  30
ATOM     30  C25 UNL     1      68.289  65.144 -11.871  0.00  0.00    +0.051 C 
BRANCH  30  31
ATOM     31  C26 UNL     1      69.100  64.786 -13.122  0.00  0.00    +0.206 C 
BRANCH  31  32
ATOM     32  O4  UNL     1      69.075  65.862 -14.063  0.00  0.00    -0.475 OA
BRANCH  32  33
ATOM     33  C27 UNL     1      68.825  65.731 -15.441  0.00  0.00    +0.139 A 
ATOM     34  C28 UNL     1      69.788  65.255 -16.354  0.00  0.00    +0.037 A 
ATOM     35  C29 UNL     1      69.492  65.178 -17.718  0.00  0.00    +0.006 A 
ATOM     36  C30 UNL     1      68.226  65.557 -18.194  0.00  0.00    +0.040 A 
ATOM     37  C32 UNL     1      67.264  66.017 -17.280  0.00  0.00    +0.006 A 
ATOM     38  C33 UNL     1      67.562  66.102 -15.918  0.00  0.00    +0.037 A 
BRANCH  36  39
ATOM     39  C31 UNL     1      67.911  65.470 -19.637  0.00  0.00    +0.208 A 
ATOM     40  N3  UNL     1      68.296  64.470 -20.457  0.00  0.00    -0.106 NA
ATOM     41  N4  UNL     1      67.822  64.782 -21.650  0.00  0.00    -0.021 NA
ATOM     42  N5  UNL     1      67.165  65.926 -21.582  0.00  0.00    -0.021 NA
ATOM     43  N6  UNL     1      67.203  66.380 -20.341  0.00  0.00    -0.106 NA
ENDBRANCH  36  39
ENDBRANCH  32  33
ENDBRANCH  31  32
ENDBRANCH  30  31
ENDBRANCH  29  30
ENDBRANCH  28  29
ENDBRANCH  27  28
ENDBRANCH   6  27
TORSDOF 11
ENDMDL
MODEL 7
REMARK VINA RESULT:      -5.7      5.672      9.852
REMARK  Name = ./data/4u7t_site_bc02/pdb/l1c2.pdb
REMARK  11 active torsions:
REMARK  status: ('A' for Active; 'I' for Inactive)
REMARK    1  A    between atoms: O1_2  and  C2_3
REMARK    2  A    between atoms: C5_6  and  C6_7
REMARK    3  A    between atoms: N2_9  and  C7_10
REMARK    4  A    between atoms: C22_26  and  O3_27
REMARK    5  A    between atoms: O3_27  and  C23_28
REMARK    6  A    between atoms: C23_28  and  C24_29
REMARK    7  A    between atoms: C24_29  and  C25_30
REMARK    8  A    between atoms: C25_30  and  C26_31
REMARK    9  A    between atoms: C26_31  and  O4_32
REMARK   10  A    between atoms: O4_32  and  C27_33
REMARK   11  A    between atoms: C30_36  and  C31_37
REMARK                            x       y       z     vdW  Elec       q    Type
REMARK                         _______ _______ _______ _____ _____    ______ ____
ROOT
ATOM      1  C2  UNL     1      61.259  55.931 -10.946  0.00  0.00    +0.172 A 
ATOM      2  C3  UNL     1      61.655  55.185 -12.074  0.00  0.00    +0.040 A 
ATOM      3  C4  UNL     1      62.248  53.931 -11.921  0.00  0.00    +0.005 A 
ATOM      4  C5  UNL     1      62.440  53.393 -10.642  0.00  0.00    +0.018 A 
ATOM      5  C21 UNL     1      62.082  54.149  -9.515  0.00  0.00    +0.041 A 
ATOM      6  C22 UNL     1      61.474  55.411  -9.659  0.00  0.00    +0.172 A 
ENDROOT
BRANCH   4   7
ATOM      7  C6  UNL     1      63.030  52.055 -10.451  0.00  0.00    +0.079 C 
ATOM      8  N1  UNL     1      62.347  51.027 -10.865  0.00  0.00    -0.172 NA
ATOM      9  N2  UNL     1      62.875  49.715 -10.935  0.00  0.00    -0.222 N 
ATOM     10  C14 UNL     1      64.013  49.426 -10.336  0.00  0.00    +0.253 C 
ATOM     11  O2  UNL     1      64.569  48.147 -10.414  0.00  0.00    -0.271 OA
ATOM     12  C15 UNL     1      64.723  50.481  -9.522  0.00  0.00    +0.091 C 
ATOM     13  C16 UNL     1      64.202  50.455  -8.071  0.00  0.00    +0.035 C 
ATOM     14  C17 UNL     1      64.574  51.682  -7.283  0.00  0.00    -0.030 C 
ATOM     15  C18 UNL     1      64.916  52.840  -7.864  0.00  0.00    -0.030 C 
ATOM     16  C19 UNL     1      65.198  52.956  -9.337  0.00  0.00    +0.032 C 
ATOM     17  C20 UNL     1      64.510  51.858 -10.174  0.00  0.00    +0.056 C 
BRANCH   9  18
ATOM     18  C7  UNL     1      62.131  48.749 -11.769  0.00  0.00    +0.108 C 
ATOM     19  C8  UNL     1      62.613  48.781 -13.236  0.00  0.00    +0.024 C 
ATOM     20  C9  UNL     1      61.927  47.736 -14.133  0.00  0.00    +0.002 C 
ATOM     21  C10 UNL     1      60.489  48.142 -14.501  0.00  0.00    +0.000 C 
ATOM     22  C11 UNL     1      59.411  47.667 -13.506  0.00  0.00    +0.000 C 
ATOM     23  C12 UNL     1      59.804  47.690 -12.016  0.00  0.00    +0.002 C 
ATOM     24  C13 UNL     1      60.604  48.936 -11.593  0.00  0.00    +0.024 C 
ENDBRANCH   9  18
ENDBRANCH   4   7
BRANCH   1  26
ATOM     25  C1  UNL     1      61.340  58.427 -11.117  0.00  0.00    +0.253 C 
ATOM     26  O1  UNL     1      60.640  57.187 -11.062  0.00  0.00    -0.468 OA
ENDBRANCH   1  26
BRANCH   6  27
ATOM     27  O3  UNL     1      61.055  56.169  -8.552  0.00  0.00    -0.472 OA
BRANCH  27  28
ATOM     28  C23 UNL     1      61.889  57.057  -7.809  0.00  0.00    +0.206 C 
BRANCH  28  29
ATOM     29  C24 UNL     1      62.877  56.259  -6.958  0.00  0.00    +0.051 C 
BRANCH  29  30
ATOM     30  C25 UNL     1      64.323  56.501  -7.417  0.00  0.00    +0.051 C 
BRANCH  30  31
ATOM     31  C26 UNL     1      64.376  57.476  -8.600  0.00  0.00    +0.206 C 
BRANCH  31  32
ATOM     32  O4  UNL     1      65.650  57.417  -9.244  0.00  0.00    -0.475 OA
BRANCH  32  33
ATOM     33  C27 UNL     1      66.004  56.516 -10.265  0.00  0.00    +0.139 A 
ATOM     34  C28 UNL     1      65.143  56.189 -11.333  0.00  0.00    +0.037 A 
ATOM     35  C29 UNL     1      65.538  55.261 -12.300  0.00  0.00    +0.006 A 
ATOM     36  C30 UNL     1      66.803  54.655 -12.231  0.00  0.00    +0.040 A 
ATOM     37  C32 UNL     1      67.664  54.994 -11.174  0.00  0.00    +0.006 A 
ATOM     38  C33 UNL     1      67.266  55.915 -10.202  0.00  0.00    +0.037 A 
BRANCH  36  39
ATOM     39  C31 UNL     1      67.223  53.677 -13.258  0.00  0.00    +0.208 A 
ATOM     40  N3  UNL     1      66.761  53.635 -14.525  0.00  0.00    -0.106 NA
ATOM     41  N4  UNL     1      67.377  52.616 -15.098  0.00  0.00    -0.021 NA
ATOM     42  N5  UNL     1      68.193  52.045 -14.230  0.00  0.00    -0.021 NA
ATOM     43  N6  UNL     1      68.120  52.682 -13.074  0.00  0.00    -0.106 NA
ENDBRANCH  36  39
ENDBRANCH  32  33
ENDBRANCH  31  32
ENDBRANCH  30  31
ENDBRANCH  29  30
ENDBRANCH  28  29
ENDBRANCH  27  28
ENDBRANCH   6  27
TORSDOF 11
ENDMDL
MODEL 8
REMARK VINA RESULT:      -5.5      5.854     10.405
REMARK  Name = ./data/4u7t_site_bc02/pdb/l1c2.pdb
REMARK  11 active torsions:
REMARK  status: ('A' for Active; 'I' for Inactive)
REMARK    1  A    between atoms: O1_2  and  C2_3
REMARK    2  A    between atoms: C5_6  and  C6_7
REMARK    3  A    between atoms: N2_9  and  C7_10
REMARK    4  A    between atoms: C22_26  and  O3_27
REMARK    5  A    between atoms: O3_27  and  C23_28
REMARK    6  A    between atoms: C23_28  and  C24_29
REMARK    7  A    between atoms: C24_29  and  C25_30
REMARK    8  A    between atoms: C25_30  and  C26_31
REMARK    9  A    between atoms: C26_31  and  O4_32
REMARK   10  A    between atoms: O4_32  and  C27_33
REMARK   11  A    between atoms: C30_36  and  C31_37
REMARK                            x       y       z     vdW  Elec       q    Type
REMARK                         _______ _______ _______ _____ _____    ______ ____
ROOT
ATOM      1  C2  UNL     1      62.179  54.962 -11.699  0.00  0.00    +0.172 A 
ATOM      2  C3  UNL     1      62.321  54.219 -12.887  0.00  0.00    +0.040 A 
ATOM      3  C4  UNL     1      62.510  52.836 -12.838  0.00  0.00    +0.005 A 
ATOM      4  C5  UNL     1      62.543  52.172 -11.606  0.00  0.00    +0.018 A 
ATOM      5  C21 UNL     1      62.440  52.914 -10.419  0.00  0.00    +0.041 A 
ATOM      6  C22 UNL     1      62.239  54.307 -10.458  0.00  0.00    +0.172 A 
ENDROOT
BRANCH   4   7
ATOM      7  C6  UNL     1      62.705  50.708 -11.525  0.00  0.00    +0.079 C 
ATOM      8  N1  UNL     1      62.228  49.991 -12.502  0.00  0.00    -0.172 NA
ATOM      9  N2  UNL     1      62.491  48.609 -12.657  0.00  0.00    -0.222 N 
ATOM     10  C14 UNL     1      63.028  47.921 -11.669  0.00  0.00    +0.253 C 
ATOM     11  O2  UNL     1      63.324  46.564 -11.808  0.00  0.00    -0.271 OA
ATOM     12  C15 UNL     1      63.305  48.596 -10.347  0.00  0.00    +0.091 C 
ATOM     13  C16 UNL     1      62.058  48.504  -9.446  0.00  0.00    +0.035 C 
ATOM     14  C17 UNL     1      62.103  49.443  -8.271  0.00  0.00    -0.030 C 
ATOM     15  C18 UNL     1      62.889  50.528  -8.239  0.00  0.00    -0.030 C 
ATOM     16  C19 UNL     1      63.969  50.777  -9.256  0.00  0.00    +0.032 C 
ATOM     17  C20 UNL     1      63.716  50.058 -10.597  0.00  0.00    +0.056 C 
BRANCH   9  18
ATOM     18  C7  UNL     1      62.212  48.030 -13.987  0.00  0.00    +0.108 C 
ATOM     19  C8  UNL     1      63.516  47.755 -14.768  0.00  0.00    +0.024 C 
ATOM     20  C9  UNL     1      63.287  47.076 -16.130  0.00  0.00    +0.002 C 
ATOM     21  C10 UNL     1      62.755  48.061 -17.187  0.00  0.00    +0.000 C 
ATOM     22  C11 UNL     1      61.218  48.181 -17.239  0.00  0.00    +0.000 C 
ATOM     23  C12 UNL     1      60.484  48.115 -15.887  0.00  0.00    +0.002 C 
ATOM     24  C13 UNL     1      61.179  48.892 -14.753  0.00  0.00    +0.024 C 
ENDBRANCH   9  18
ENDBRANCH   4   7
BRANCH   1  26
ATOM     25  C1  UNL     1      62.992  57.322 -11.886  0.00  0.00    +0.253 C 
ATOM     26  O1  UNL     1      61.964  56.350 -11.709  0.00  0.00    -0.468 OA
ENDBRANCH   1  26
BRANCH   6  27
ATOM     27  O3  UNL     1      62.078  55.071  -9.288  0.00  0.00    -0.472 OA
BRANCH  27  28
ATOM     28  C23 UNL     1      61.958  54.532  -7.973  0.00  0.00    +0.206 C 
BRANCH  28  29
ATOM     29  C24 UNL     1      63.194  54.888  -7.147  0.00  0.00    +0.051 C 
BRANCH  29  30
ATOM     30  C25 UNL     1      64.390  54.005  -7.533  0.00  0.00    +0.051 C 
BRANCH  30  31
ATOM     31  C26 UNL     1      65.587  54.853  -7.980  0.00  0.00    +0.206 C 
BRANCH  31  32
ATOM     32  O4  UNL     1      65.384  55.350  -9.305  0.00  0.00    -0.475 OA
BRANCH  32  33
ATOM     33  C27 UNL     1      65.824  54.723 -10.485  0.00  0.00    +0.139 A 
ATOM     34  C28 UNL     1      66.160  53.356 -10.548  0.00  0.00    +0.037 A 
ATOM     35  C29 UNL     1      66.623  52.796 -11.742  0.00  0.00    +0.006 A 
ATOM     36  C30 UNL     1      66.743  53.584 -12.898  0.00  0.00    +0.040 A 
ATOM     37  C32 UNL     1      66.392  54.943 -12.836  0.00  0.00    +0.006 A 
ATOM     38  C33 UNL     1      65.938  55.505 -11.641  0.00  0.00    +0.037 A 
BRANCH  36  39
ATOM     39  C31 UNL     1      67.228  52.990 -14.163  0.00  0.00    +0.208 A 
ATOM     40  N3  UNL     1      67.219  53.607 -15.363  0.00  0.00    -0.106 NA
ATOM     41  N4  UNL     1      67.722  52.734 -16.219  0.00  0.00    -0.021 NA
ATOM     42  N5  UNL     1      68.036  51.620 -15.583  0.00  0.00    -0.021 NA
ATOM     43  N6  UNL     1      67.740  51.747 -14.301  0.00  0.00    -0.106 NA
ENDBRANCH  36  39
ENDBRANCH  32  33
ENDBRANCH  31  32
ENDBRANCH  30  31
ENDBRANCH  29  30
ENDBRANCH  28  29
ENDBRANCH  27  28
ENDBRANCH   6  27
TORSDOF 11
ENDMDL
MODEL 9
REMARK VINA RESULT:      -5.5      4.245      8.917
REMARK  Name = ./data/4u7t_site_bc02/pdb/l1c2.pdb
REMARK  11 active torsions:
REMARK  status: ('A' for Active; 'I' for Inactive)
REMARK    1  A    between atoms: O1_2  and  C2_3
REMARK    2  A    between atoms: C5_6  and  C6_7
REMARK    3  A    between atoms: N2_9  and  C7_10
REMARK    4  A    between atoms: C22_26  and  O3_27
REMARK    5  A    between atoms: O3_27  and  C23_28
REMARK    6  A    between atoms: C23_28  and  C24_29
REMARK    7  A    between atoms: C24_29  and  C25_30
REMARK    8  A    between atoms: C25_30  and  C26_31
REMARK    9  A    between atoms: C26_31  and  O4_32
REMARK   10  A    between atoms: O4_32  and  C27_33
REMARK   11  A    between atoms: C30_36  and  C31_37
REMARK                            x       y       z     vdW  Elec       q    Type
REMARK                         _______ _______ _______ _____ _____    ______ ____
ROOT
ATOM      1  C2  UNL     1      62.247  63.418 -12.258  0.00  0.00    +0.172 A 
ATOM      2  C3  UNL     1      62.034  62.181 -12.899  0.00  0.00    +0.040 A 
ATOM      3  C4  UNL     1      62.351  60.985 -12.254  0.00  0.00    +0.005 A 
ATOM      4  C5  UNL     1      62.869  61.002 -10.952  0.00  0.00    +0.018 A 
ATOM      5  C21 UNL     1      63.118  62.232 -10.325  0.00  0.00    +0.041 A 
ATOM      6  C22 UNL     1      62.793  63.444 -10.964  0.00  0.00    +0.172 A 
ENDROOT
BRANCH   4   7
ATOM      7  C6  UNL     1      63.179  59.753 -10.232  0.00  0.00    +0.079 C 
ATOM      8  N1  UNL     1      62.885  58.627 -10.817  0.00  0.00    -0.172 NA
ATOM      9  N2  UNL     1      63.311  57.365 -10.339  0.00  0.00    -0.222 N 
ATOM     10  C14 UNL     1      63.813  57.250  -9.126  0.00  0.00    +0.253 C 
ATOM     11  O2  UNL     1      64.267  56.021  -8.643  0.00  0.00    -0.271 OA
ATOM     12  C15 UNL     1      63.877  58.457  -8.222  0.00  0.00    +0.091 C 
ATOM     13  C16 UNL     1      62.560  58.583  -7.430  0.00  0.00    +0.035 C 
ATOM     14  C17 UNL     1      62.382  59.931  -6.784  0.00  0.00    -0.030 C 
ATOM     15  C18 UNL     1      63.038  61.025  -7.194  0.00  0.00    -0.030 C 
ATOM     16  C19 UNL     1      64.186  60.965  -8.165  0.00  0.00    +0.032 C 
ATOM     17  C20 UNL     1      64.151  59.713  -9.067  0.00  0.00    +0.056 C 
BRANCH   9  18
ATOM     18  C7  UNL     1      63.235  56.239 -11.293  0.00  0.00    +0.108 C 
ATOM     19  C8  UNL     1      63.793  56.635 -12.678  0.00  0.00    +0.024 C 
ATOM     20  C9  UNL     1      63.812  55.474 -13.689  0.00  0.00    +0.002 C 
ATOM     21  C10 UNL     1      62.410  55.163 -14.241  0.00  0.00    +0.000 C 
ATOM     22  C11 UNL     1      61.607  54.137 -13.417  0.00  0.00    +0.000 C 
ATOM     23  C12 UNL     1      61.774  54.212 -11.888  0.00  0.00    +0.002 C 
ATOM     24  C13 UNL     1      61.805  55.645 -11.326  0.00  0.00    +0.024 C 
ENDBRANCH   9  18
ENDBRANCH   4   7
BRANCH   1  26
ATOM     25  C1  UNL     1      62.842  65.450 -13.593  0.00  0.00    +0.253 C 
ATOM     26  O1  UNL     1      61.920  64.640 -12.868  0.00  0.00    -0.468 OA
ENDBRANCH   1  26
BRANCH   6  27
ATOM     27  O3  UNL     1      62.980  64.690 -10.341  0.00  0.00    -0.472 OA
BRANCH  27  28
ATOM     28  C23 UNL     1      61.997  65.367  -9.559  0.00  0.00    +0.206 C 
BRANCH  28  29
ATOM     29  C24 UNL     1      61.957  64.783  -8.147  0.00  0.00    +0.051 C 
BRANCH  29  30
ATOM     30  C25 UNL     1      62.804  65.621  -7.178  0.00  0.00    +0.051 C 
BRANCH  30  31
ATOM     31  C26 UNL     1      63.945  64.793  -6.576  0.00  0.00    +0.206 C 
BRANCH  31  32
ATOM     32  O4  UNL     1      65.211  65.279  -7.025  0.00  0.00    -0.475 OA
BRANCH  32  33
ATOM     33  C27 UNL     1      65.766  65.048  -8.297  0.00  0.00    +0.139 A 
ATOM     34  C28 UNL     1      65.945  66.069  -9.253  0.00  0.00    +0.037 A 
ATOM     35  C29 UNL     1      66.471  65.772 -10.514  0.00  0.00    +0.006 A 
ATOM     36  C30 UNL     1      66.845  64.458 -10.838  0.00  0.00    +0.040 A 
ATOM     37  C32 UNL     1      66.680  63.446  -9.878  0.00  0.00    +0.006 A 
ATOM     38  C33 UNL     1      66.145  63.740  -8.622  0.00  0.00    +0.037 A 
BRANCH  36  39
ATOM     39  C31 UNL     1      67.407  64.146 -12.170  0.00  0.00    +0.208 A 
ATOM     40  N3  UNL     1      68.129  63.045 -12.470  0.00  0.00    -0.106 NA
ATOM     41  N4  UNL     1      68.443  63.159 -13.748  0.00  0.00    -0.021 NA
ATOM     42  N5  UNL     1      67.937  64.279 -14.232  0.00  0.00    -0.021 NA
ATOM     43  N6  UNL     1      67.286  64.917 -13.273  0.00  0.00    -0.106 NA
ENDBRANCH  36  39
ENDBRANCH  32  33
ENDBRANCH  31  32
ENDBRANCH  30  31
ENDBRANCH  29  30
ENDBRANCH  28  29
ENDBRANCH  27  28
ENDBRANCH   6  27
TORSDOF 11
ENDMDL
