MODEL 1
REMARK VINA RESULT:      -9.2      0.000      0.000
REMARK  Name = ./data/4u7t_site_bc02/pdb/l1c1.pdb
REMARK  11 active torsions:
REMARK  status: ('A' for Active; 'I' for Inactive)
REMARK    1  A    between atoms: O1_2  and  C2_3
REMARK    2  A    between atoms: C5_6  and  C6_7
REMARK    3  A    between atoms: N2_9  and  C7_10
REMARK    4  A    between atoms: C22_26  and  O3_27
REMARK    5  A    between atoms: O3_27  and  C23_28
REMARK    6  A    between atoms: C23_28  and  C24_29
REMARK    7  A    between atoms: C24_29  and  C25_30
REMARK    8  A    between atoms: C25_30  and  C26_31
REMARK    9  A    between atoms: C26_31  and  O4_32
REMARK   10  A    between atoms: O4_32  and  C27_33
REMARK   11  A    between atoms: C30_36  and  C31_37
REMARK                            x       y       z     vdW  Elec       q    Type
REMARK                         _______ _______ _______ _____ _____    ______ ____
ROOT
ATOM      1  C2  UNL     1      21.492  61.414   1.257  0.00  0.00    +0.172 A 
ATOM      2  C3  UNL     1      20.974  61.250   2.554  0.00  0.00    +0.040 A 
ATOM      3  C4  UNL     1      20.081  60.215   2.836  0.00  0.00    +0.005 A 
ATOM      4  C5  UNL     1      19.691  59.307   1.834  0.00  0.00    +0.018 A 
ATOM      5  C21 UNL     1      20.228  59.467   0.541  0.00  0.00    +0.041 A 
ATOM      6  C22 UNL     1      21.111  60.524   0.244  0.00  0.00    +0.172 A 
ENDROOT
BRANCH   4   7
ATOM      7  C6  UNL     1      18.720  58.202   2.105  0.00  0.00    +0.079 C 
ATOM      8  N1  UNL     1      18.612  57.764   3.322  0.00  0.00    -0.172 NA
ATOM      9  N2  UNL     1      17.784  56.702   3.731  0.00  0.00    -0.222 N 
ATOM     10  C14 UNL     1      16.913  56.160   2.913  0.00  0.00    +0.253 C 
ATOM     11  O2  UNL     1      16.030  55.185   3.387  0.00  0.00    -0.271 OA
ATOM     12  C15 UNL     1      16.789  56.617   1.469  0.00  0.00    +0.091 C 
ATOM     13  C16 UNL     1      16.524  55.387   0.539  0.00  0.00    +0.035 C 
ATOM     14  C17 UNL     1      17.053  55.560  -0.860  0.00  0.00    -0.030 C 
ATOM     15  C18 UNL     1      18.250  56.122  -1.051  0.00  0.00    -0.030 C 
ATOM     16  C19 UNL     1      18.984  56.695   0.124  0.00  0.00    +0.032 C 
ATOM     17  C20 UNL     1      17.987  57.500   0.984  0.00  0.00    +0.056 C 
BRANCH   9  18
ATOM     18  C7  UNL     1      17.914  56.291   5.148  0.00  0.00    +0.108 C 
ATOM     19  C8  UNL     1      19.386  56.389   5.611  0.00  0.00    +0.024 C 
ATOM     20  C9  UNL     1      19.690  55.559   6.865  0.00  0.00    +0.002 C 
ATOM     21  C10 UNL     1      18.844  55.955   8.085  0.00  0.00    +0.000 C 
ATOM     22  C11 UNL     1      17.408  55.408   8.002  0.00  0.00    +0.000 C 
ATOM     23  C12 UNL     1      16.410  56.319   7.262  0.00  0.00    +0.002 C 
ATOM     24  C13 UNL     1      16.960  57.105   6.057  0.00  0.00    +0.024 C 
ENDBRANCH   9  18
ENDBRANCH   4   7
BRANCH   1  26
ATOM     25  C1  UNL     1      23.804  62.345   1.031  0.00  0.00    +0.253 C 
ATOM     26  O1  UNL     1      22.388  62.448   0.937  0.00  0.00    -0.468 OA
ENDBRANCH   1  26
BRANCH   6  27
ATOM     27  O3  UNL     1      21.623  60.728  -1.047  0.00  0.00    -0.472 OA
BRANCH  27  28
ATOM     28  C23 UNL     1      20.871  61.231  -2.149  0.00  0.00    +0.206 C 
BRANCH  28  29
ATOM     29  C24 UNL     1      20.946  60.256  -3.325  0.00  0.00    +0.051 C 
BRANCH  29  30
ATOM     30  C25 UNL     1      20.060  59.025  -3.086  0.00  0.00    +0.051 C 
BRANCH  30  31
ATOM     31  C26 UNL     1      19.969  58.145  -4.332  0.00  0.00    +0.206 C 
BRANCH  31  32
ATOM     32  O4  UNL     1      19.199  58.793  -5.342  0.00  0.00    -0.475 OA
BRANCH  32  33
ATOM     33  C27 UNL     1      19.683  59.109  -6.621  0.00  0.00    +0.139 A 
ATOM     34  C28 UNL     1      20.366  60.309  -6.894  0.00  0.00    +0.037 A 
ATOM     35  C29 UNL     1      20.835  60.578  -8.182  0.00  0.00    +0.006 A 
ATOM     36  C30 UNL     1      20.641  59.654  -9.225  0.00  0.00    +0.040 A 
ATOM     37  C32 UNL     1      19.956  58.456  -8.946  0.00  0.00    +0.006 A 
ATOM     38  C33 UNL     1      19.480  58.193  -7.657  0.00  0.00    +0.037 A 
BRANCH  36  39
ATOM     39  C31 UNL     1      21.154  59.936 -10.592  0.00  0.00    +0.208 A 
ATOM     40  N3  UNL     1      21.899  59.088 -11.337  0.00  0.00    -0.106 NA
ATOM     41  N4  UNL     1      22.128  59.718 -12.477  0.00  0.00    -0.021 NA
ATOM     42  N5  UNL     1      21.555  60.908 -12.449  0.00  0.00    -0.021 NA
ATOM     43  N6  UNL     1      20.940  61.075 -11.290  0.00  0.00    -0.106 NA
ENDBRANCH  36  39
ENDBRANCH  32  33
ENDBRANCH  31  32
ENDBRANCH  30  31
ENDBRANCH  29  30
ENDBRANCH  28  29
ENDBRANCH  27  28
ENDBRANCH   6  27
TORSDOF 11
ENDMDL
MODEL 2
REMARK VINA RESULT:      -9.0      6.044     10.914
REMARK  Name = ./data/4u7t_site_bc02/pdb/l1c1.pdb
REMARK  11 active torsions:
REMARK  status: ('A' for Active; 'I' for Inactive)
REMARK    1  A    between atoms: O1_2  and  C2_3
REMARK    2  A    between atoms: C5_6  and  C6_7
REMARK    3  A    between atoms: N2_9  and  C7_10
REMARK    4  A    between atoms: C22_26  and  O3_27
REMARK    5  A    between atoms: O3_27  and  C23_28
REMARK    6  A    between atoms: C23_28  and  C24_29
REMARK    7  A    between atoms: C24_29  and  C25_30
REMARK    8  A    between atoms: C25_30  and  C26_31
REMARK    9  A    between atoms: C26_31  and  O4_32
REMARK   10  A    between atoms: O4_32  and  C27_33
REMARK   11  A    between atoms: C30_36  and  C31_37
REMARK                            x       y       z     vdW  Elec       q    Type
REMARK                         _______ _______ _______ _____ _____    ______ ____
ROOT
ATOM      1  C2  UNL     1      18.785  61.873  -3.848  0.00  0.00    +0.172 A 
ATOM      2  C3  UNL     1      18.137  61.639  -5.073  0.00  0.00    +0.040 A 
ATOM      3  C4  UNL     1      18.552  60.602  -5.910  0.00  0.00    +0.005 A 
ATOM      4  C5  UNL     1      19.618  59.761  -5.540  0.00  0.00    +0.018 A 
ATOM      5  C21 UNL     1      20.254  59.991  -4.303  0.00  0.00    +0.041 A 
ATOM      6  C22 UNL     1      19.854  61.051  -3.465  0.00  0.00    +0.172 A 
ENDROOT
BRANCH   4   7
ATOM      7  C6  UNL     1      20.097  58.656  -6.428  0.00  0.00    +0.079 C 
ATOM      8  N1  UNL     1      20.511  58.962  -7.619  0.00  0.00    -0.172 NA
ATOM      9  N2  UNL     1      20.945  58.039  -8.589  0.00  0.00    -0.222 N 
ATOM     10  C14 UNL     1      21.117  56.771  -8.296  0.00  0.00    +0.253 C 
ATOM     11  O2  UNL     1      21.656  55.906  -9.253  0.00  0.00    -0.271 OA
ATOM     12  C15 UNL     1      20.808  56.226  -6.911  0.00  0.00    +0.091 C 
ATOM     13  C16 UNL     1      20.165  54.804  -7.027  0.00  0.00    +0.035 C 
ATOM     14  C17 UNL     1      19.225  54.473  -5.898  0.00  0.00    -0.030 C 
ATOM     15  C18 UNL     1      18.380  55.402  -5.444  0.00  0.00    -0.030 C 
ATOM     16  C19 UNL     1      18.480  56.802  -5.973  0.00  0.00    +0.032 C 
ATOM     17  C20 UNL     1      19.968  57.205  -6.024  0.00  0.00    +0.056 C 
BRANCH   9  18
ATOM     18  C7  UNL     1      21.256  58.602  -9.923  0.00  0.00    +0.108 C 
ATOM     19  C8  UNL     1      20.871  60.098  -9.986  0.00  0.00    +0.024 C 
ATOM     20  C9  UNL     1      20.711  60.629 -11.416  0.00  0.00    +0.002 C 
ATOM     21  C10 UNL     1      21.981  60.490 -12.270  0.00  0.00    +0.000 C 
ATOM     22  C11 UNL     1      22.194  59.050 -12.769  0.00  0.00    +0.000 C 
ATOM     23  C12 UNL     1      22.982  58.142 -11.805  0.00  0.00    +0.002 C 
ATOM     24  C13 UNL     1      22.739  58.362 -10.300  0.00  0.00    +0.024 C 
ENDBRANCH   9  18
ENDBRANCH   4   7
BRANCH   1  26
ATOM     25  C1  UNL     1      17.277  63.762  -3.199  0.00  0.00    +0.253 C 
ATOM     26  O1  UNL     1      18.398  62.911  -2.984  0.00  0.00    -0.468 OA
ENDBRANCH   1  26
BRANCH   6  27
ATOM     27  O3  UNL     1      20.500  61.325  -2.249  0.00  0.00    -0.472 OA
BRANCH  27  28
ATOM     28  C23 UNL     1      21.912  61.294  -2.055  0.00  0.00    +0.206 C 
BRANCH  28  29
ATOM     29  C24 UNL     1      22.248  61.563  -0.587  0.00  0.00    +0.051 C 
BRANCH  29  30
ATOM     30  C25 UNL     1      22.218  63.067  -0.275  0.00  0.00    +0.051 C 
BRANCH  30  31
ATOM     31  C26 UNL     1      22.277  63.909  -1.549  0.00  0.00    +0.206 C 
BRANCH  31  32
ATOM     32  O4  UNL     1      20.971  64.353  -1.911  0.00  0.00    -0.475 OA
BRANCH  32  33
ATOM     33  C27 UNL     1      20.714  65.502  -2.675  0.00  0.00    +0.139 A 
ATOM     34  C28 UNL     1      19.666  66.392  -2.371  0.00  0.00    +0.037 A 
ATOM     35  C29 UNL     1      19.452  67.526  -3.158  0.00  0.00    +0.006 A 
ATOM     36  C30 UNL     1      20.281  67.802  -4.262  0.00  0.00    +0.040 A 
ATOM     37  C32 UNL     1      21.325  66.907  -4.561  0.00  0.00    +0.006 A 
ATOM     38  C33 UNL     1      21.533  65.768  -3.776  0.00  0.00    +0.037 A 
BRANCH  36  39
ATOM     39  C31 UNL     1      20.059  69.018  -5.089  0.00  0.00    +0.208 A 
ATOM     40  N3  UNL     1      19.081  69.930  -4.890  0.00  0.00    -0.106 NA
ATOM     41  N4  UNL     1      19.248  70.847  -5.827  0.00  0.00    -0.021 NA
ATOM     42  N5  UNL     1      20.283  70.526  -6.582  0.00  0.00    -0.021 NA
ATOM     43  N6  UNL     1      20.811  69.393  -6.148  0.00  0.00    -0.106 NA
ENDBRANCH  36  39
ENDBRANCH  32  33
ENDBRANCH  31  32
ENDBRANCH  30  31
ENDBRANCH  29  30
ENDBRANCH  28  29
ENDBRANCH  27  28
ENDBRANCH   6  27
TORSDOF 11
ENDMDL
MODEL 3
REMARK VINA RESULT:      -8.9      3.192     11.600
REMARK  Name = ./data/4u7t_site_bc02/pdb/l1c1.pdb
REMARK  11 active torsions:
REMARK  status: ('A' for Active; 'I' for Inactive)
REMARK    1  A    between atoms: O1_2  and  C2_3
REMARK    2  A    between atoms: C5_6  and  C6_7
REMARK    3  A    between atoms: N2_9  and  C7_10
REMARK    4  A    between atoms: C22_26  and  O3_27
REMARK    5  A    between atoms: O3_27  and  C23_28
REMARK    6  A    between atoms: C23_28  and  C24_29
REMARK    7  A    between atoms: C24_29  and  C25_30
REMARK    8  A    between atoms: C25_30  and  C26_31
REMARK    9  A    between atoms: C26_31  and  O4_32
REMARK   10  A    between atoms: O4_32  and  C27_33
REMARK   11  A    between atoms: C30_36  and  C31_37
REMARK                            x       y       z     vdW  Elec       q    Type
REMARK                         _______ _______ _______ _____ _____    ______ ____
ROOT
ATOM      1  C2  UNL     1      20.237  62.591  -3.328  0.00  0.00    +0.172 A 
ATOM      2  C3  UNL     1      19.914  62.753  -4.686  0.00  0.00    +0.040 A 
ATOM      3  C4  UNL     1      20.031  61.684  -5.577  0.00  0.00    +0.005 A 
ATOM      4  C5  UNL     1      20.461  60.420  -5.132  0.00  0.00    +0.018 A 
ATOM      5  C21 UNL     1      20.767  60.260  -3.766  0.00  0.00    +0.041 A 
ATOM      6  C22 UNL     1      20.674  61.341  -2.867  0.00  0.00    +0.172 A 
ENDROOT
BRANCH   4   7
ATOM      7  C6  UNL     1      20.615  59.264  -6.069  0.00  0.00    +0.079 C 
ATOM      8  N1  UNL     1      20.884  59.514  -7.314  0.00  0.00    -0.172 NA
ATOM      9  N2  UNL     1      21.010  58.546  -8.327  0.00  0.00    -0.222 N 
ATOM     10  C14 UNL     1      21.021  57.263  -8.048  0.00  0.00    +0.253 C 
ATOM     11  O2  UNL     1      21.261  56.335  -9.066  0.00  0.00    -0.271 OA
ATOM     12  C15 UNL     1      20.845  56.758  -6.626  0.00  0.00    +0.091 C 
ATOM     13  C16 UNL     1      19.974  55.458  -6.623  0.00  0.00    +0.035 C 
ATOM     14  C17 UNL     1      19.178  55.267  -5.360  0.00  0.00    -0.030 C 
ATOM     15  C18 UNL     1      18.572  56.314  -4.792  0.00  0.00    -0.030 C 
ATOM     16  C19 UNL     1      18.812  57.685  -5.348  0.00  0.00    +0.032 C 
ATOM     17  C20 UNL     1      20.319  57.847  -5.632  0.00  0.00    +0.056 C 
BRANCH   9  18
ATOM     18  C7  UNL     1      21.198  59.068  -9.700  0.00  0.00    +0.108 C 
ATOM     19  C8  UNL     1      20.910  60.586  -9.749  0.00  0.00    +0.024 C 
ATOM     20  C9  UNL     1      20.618  61.109 -11.161  0.00  0.00    +0.002 C 
ATOM     21  C10 UNL     1      21.765  60.871 -12.156  0.00  0.00    +0.000 C 
ATOM     22  C11 UNL     1      21.820  59.413 -12.645  0.00  0.00    +0.000 C 
ATOM     23  C12 UNL     1      22.653  58.465 -11.762  0.00  0.00    +0.002 C 
ATOM     24  C13 UNL     1      22.606  58.721 -10.244  0.00  0.00    +0.024 C 
ENDBRANCH   9  18
ENDBRANCH   4   7
BRANCH   1  26
ATOM     25  C1  UNL     1      19.762  64.977  -2.742  0.00  0.00    +0.253 C 
ATOM     26  O1  UNL     1      20.138  63.646  -2.406  0.00  0.00    -0.468 OA
ENDBRANCH   1  26
BRANCH   6  27
ATOM     27  O3  UNL     1      21.015  61.216  -1.511  0.00  0.00    -0.472 OA
BRANCH  27  28
ATOM     28  C23 UNL     1      22.349  61.224  -1.006  0.00  0.00    +0.206 C 
BRANCH  28  29
ATOM     29  C24 UNL     1      22.605  62.511  -0.220  0.00  0.00    +0.051 C 
BRANCH  29  30
ATOM     30  C25 UNL     1      22.843  62.217   1.269  0.00  0.00    +0.051 C 
BRANCH  30  31
ATOM     31  C26 UNL     1      21.873  62.992   2.159  0.00  0.00    +0.206 C 
BRANCH  31  32
ATOM     32  O4  UNL     1      21.462  62.188   3.263  0.00  0.00    -0.475 OA
BRANCH  32  33
ATOM     33  C27 UNL     1      20.988  60.872   3.143  0.00  0.00    +0.139 A 
ATOM     34  C28 UNL     1      21.164  59.912   4.158  0.00  0.00    +0.037 A 
ATOM     35  C29 UNL     1      20.671  58.615   3.997  0.00  0.00    +0.006 A 
ATOM     36  C30 UNL     1      19.985  58.248   2.825  0.00  0.00    +0.040 A 
ATOM     37  C32 UNL     1      19.814  59.211   1.813  0.00  0.00    +0.006 A 
ATOM     38  C33 UNL     1      20.316  60.507   1.973  0.00  0.00    +0.037 A 
BRANCH  36  39
ATOM     39  C31 UNL     1      19.448  56.870   2.662  0.00  0.00    +0.208 A 
ATOM     40  N3  UNL     1      19.441  55.917   3.622  0.00  0.00    -0.106 NA
ATOM     41  N4  UNL     1      18.868  54.859   3.073  0.00  0.00    -0.021 NA
ATOM     42  N5  UNL     1      18.533  55.134   1.825  0.00  0.00    -0.021 NA
ATOM     43  N6  UNL     1      18.879  56.378   1.538  0.00  0.00    -0.106 NA
ENDBRANCH  36  39
ENDBRANCH  32  33
ENDBRANCH  31  32
ENDBRANCH  30  31
ENDBRANCH  29  30
ENDBRANCH  28  29
ENDBRANCH  27  28
ENDBRANCH   6  27
TORSDOF 11
ENDMDL
MODEL 4
REMARK VINA RESULT:      -8.5      3.903      4.533
REMARK  Name = ./data/4u7t_site_bc02/pdb/l1c1.pdb
REMARK  11 active torsions:
REMARK  status: ('A' for Active; 'I' for Inactive)
REMARK    1  A    between atoms: O1_2  and  C2_3
REMARK    2  A    between atoms: C5_6  and  C6_7
REMARK    3  A    between atoms: N2_9  and  C7_10
REMARK    4  A    between atoms: C22_26  and  O3_27
REMARK    5  A    between atoms: O3_27  and  C23_28
REMARK    6  A    between atoms: C23_28  and  C24_29
REMARK    7  A    between atoms: C24_29  and  C25_30
REMARK    8  A    between atoms: C25_30  and  C26_31
REMARK    9  A    between atoms: C26_31  and  O4_32
REMARK   10  A    between atoms: O4_32  and  C27_33
REMARK   11  A    between atoms: C30_36  and  C31_37
REMARK                            x       y       z     vdW  Elec       q    Type
REMARK                         _______ _______ _______ _____ _____    ______ ____
ROOT
ATOM      1  C2  UNL     1      21.442  61.442   1.599  0.00  0.00    +0.172 A 
ATOM      2  C3  UNL     1      20.905  61.268   2.886  0.00  0.00    +0.040 A 
ATOM      3  C4  UNL     1      19.994  60.243   3.143  0.00  0.00    +0.005 A 
ATOM      4  C5  UNL     1      19.603  59.355   2.123  0.00  0.00    +0.018 A 
ATOM      5  C21 UNL     1      20.158  59.525   0.839  0.00  0.00    +0.041 A 
ATOM      6  C22 UNL     1      21.060  60.572   0.569  0.00  0.00    +0.172 A 
ENDROOT
BRANCH   4   7
ATOM      7  C6  UNL     1      18.612  58.261   2.366  0.00  0.00    +0.079 C 
ATOM      8  N1  UNL     1      18.480  57.810   3.576  0.00  0.00    -0.172 NA
ATOM      9  N2  UNL     1      17.631  56.755   3.960  0.00  0.00    -0.222 N 
ATOM     10  C14 UNL     1      16.764  56.236   3.122  0.00  0.00    +0.253 C 
ATOM     11  O2  UNL     1      15.861  55.268   3.571  0.00  0.00    -0.271 OA
ATOM     12  C15 UNL     1      16.669  56.712   1.682  0.00  0.00    +0.091 C 
ATOM     13  C16 UNL     1      16.400  55.497   0.733  0.00  0.00    +0.035 C 
ATOM     14  C17 UNL     1      16.952  55.679  -0.655  0.00  0.00    -0.030 C 
ATOM     15  C18 UNL     1      18.160  56.226  -0.822  0.00  0.00    -0.030 C 
ATOM     16  C19 UNL     1      18.884  56.775   0.371  0.00  0.00    +0.032 C 
ATOM     17  C20 UNL     1      17.886  57.583   1.225  0.00  0.00    +0.056 C 
BRANCH   9  18
ATOM     18  C7  UNL     1      17.734  56.326   5.373  0.00  0.00    +0.108 C 
ATOM     19  C8  UNL     1      19.196  56.418   5.866  0.00  0.00    +0.024 C 
ATOM     20  C9  UNL     1      19.476  55.572   7.115  0.00  0.00    +0.002 C 
ATOM     21  C10 UNL     1      18.606  55.951   8.323  0.00  0.00    +0.000 C 
ATOM     22  C11 UNL     1      17.173  55.404   8.205  0.00  0.00    +0.000 C 
ATOM     23  C12 UNL     1      16.188  56.324   7.458  0.00  0.00    +0.002 C 
ATOM     24  C13 UNL     1      16.761  57.126   6.274  0.00  0.00    +0.024 C 
ENDBRANCH   9  18
ENDBRANCH   4   7
BRANCH   1  26
ATOM     25  C1  UNL     1      23.764  62.371   1.496  0.00  0.00    +0.253 C 
ATOM     26  O1  UNL     1      22.357  62.467   1.304  0.00  0.00    -0.468 OA
ENDBRANCH   1  26
BRANCH   6  27
ATOM     27  O3  UNL     1      21.593  60.787  -0.713  0.00  0.00    -0.472 OA
BRANCH  27  28
ATOM     28  C23 UNL     1      20.823  60.844  -1.912  0.00  0.00    +0.206 C 
BRANCH  28  29
ATOM     29  C24 UNL     1      20.611  59.434  -2.467  0.00  0.00    +0.051 C 
BRANCH  29  30
ATOM     30  C25 UNL     1      20.719  59.417  -3.999  0.00  0.00    +0.051 C 
BRANCH  30  31
ATOM     31  C26 UNL     1      19.345  59.322  -4.661  0.00  0.00    +0.206 C 
BRANCH  31  32
ATOM     32  O4  UNL     1      19.070  60.507  -5.405  0.00  0.00    -0.475 OA
BRANCH  32  33
ATOM     33  C27 UNL     1      18.976  61.788  -4.838  0.00  0.00    +0.139 A 
ATOM     34  C28 UNL     1      20.068  62.675  -4.793  0.00  0.00    +0.037 A 
ATOM     35  C29 UNL     1      19.926  63.942  -4.223  0.00  0.00    +0.006 A 
ATOM     36  C30 UNL     1      18.690  64.357  -3.693  0.00  0.00    +0.040 A 
ATOM     37  C32 UNL     1      17.602  63.465  -3.740  0.00  0.00    +0.006 A 
ATOM     38  C33 UNL     1      17.749  62.193  -4.304  0.00  0.00    +0.037 A 
BRANCH  36  39
ATOM     39  C31 UNL     1      18.537  65.713  -3.100  0.00  0.00    +0.208 A 
ATOM     40  N3  UNL     1      19.536  66.442  -2.554  0.00  0.00    -0.106 NA
ATOM     41  N4  UNL     1      18.980  67.577  -2.164  0.00  0.00    -0.021 NA
ATOM     42  N5  UNL     1      17.691  67.561  -2.451  0.00  0.00    -0.021 NA
ATOM     43  N6  UNL     1      17.383  66.414  -3.036  0.00  0.00    -0.106 NA
ENDBRANCH  36  39
ENDBRANCH  32  33
ENDBRANCH  31  32
ENDBRANCH  30  31
ENDBRANCH  29  30
ENDBRANCH  28  29
ENDBRANCH  27  28
ENDBRANCH   6  27
TORSDOF 11
ENDMDL
MODEL 5
REMARK VINA RESULT:      -8.5      2.998     11.708
REMARK  Name = ./data/4u7t_site_bc02/pdb/l1c1.pdb
REMARK  11 active torsions:
REMARK  status: ('A' for Active; 'I' for Inactive)
REMARK    1  A    between atoms: O1_2  and  C2_3
REMARK    2  A    between atoms: C5_6  and  C6_7
REMARK    3  A    between atoms: N2_9  and  C7_10
REMARK    4  A    between atoms: C22_26  and  O3_27
REMARK    5  A    between atoms: O3_27  and  C23_28
REMARK    6  A    between atoms: C23_28  and  C24_29
REMARK    7  A    between atoms: C24_29  and  C25_30
REMARK    8  A    between atoms: C25_30  and  C26_31
REMARK    9  A    between atoms: C26_31  and  O4_32
REMARK   10  A    between atoms: O4_32  and  C27_33
REMARK   11  A    between atoms: C30_36  and  C31_37
REMARK                            x       y       z     vdW  Elec       q    Type
REMARK                         _______ _______ _______ _____ _____    ______ ____
ROOT
ATOM      1  C2  UNL     1      19.189  62.360  -3.731  0.00  0.00    +0.172 A 
ATOM      2  C3  UNL     1      18.319  61.948  -4.756  0.00  0.00    +0.040 A 
ATOM      3  C4  UNL     1      18.649  60.867  -5.575  0.00  0.00    +0.005 A 
ATOM      4  C5  UNL     1      19.850  60.158  -5.384  0.00  0.00    +0.018 A 
ATOM      5  C21 UNL     1      20.709  60.567  -4.343  0.00  0.00    +0.041 A 
ATOM      6  C22 UNL     1      20.393  61.672  -3.530  0.00  0.00    +0.172 A 
ENDROOT
BRANCH   4   7
ATOM      7  C6  UNL     1      20.238  59.009  -6.260  0.00  0.00    +0.079 C 
ATOM      8  N1  UNL     1      20.608  59.264  -7.477  0.00  0.00    -0.172 NA
ATOM      9  N2  UNL     1      20.955  58.296  -8.439  0.00  0.00    -0.222 N 
ATOM     10  C14 UNL     1      21.085  57.030  -8.117  0.00  0.00    +0.253 C 
ATOM     11  O2  UNL     1      21.539  56.116  -9.072  0.00  0.00    -0.271 OA
ATOM     12  C15 UNL     1      20.817  56.537  -6.705  0.00  0.00    +0.091 C 
ATOM     13  C16 UNL     1      20.108  55.144  -6.749  0.00  0.00    +0.035 C 
ATOM     14  C17 UNL     1      19.209  54.885  -5.569  0.00  0.00    -0.030 C 
ATOM     15  C18 UNL     1      18.427  55.864  -5.103  0.00  0.00    -0.030 C 
ATOM     16  C19 UNL     1      18.564  57.242  -5.677  0.00  0.00    +0.032 C 
ATOM     17  C20 UNL     1      20.064  57.577  -5.808  0.00  0.00    +0.056 C 
BRANCH   9  18
ATOM     18  C7  UNL     1      21.227  58.808  -9.801  0.00  0.00    +0.108 C 
ATOM     19  C8  UNL     1      20.852  60.304  -9.906  0.00  0.00    +0.024 C 
ATOM     20  C9  UNL     1      20.650  60.786 -11.348  0.00  0.00    +0.002 C 
ATOM     21  C10 UNL     1      21.890  60.605 -12.237  0.00  0.00    +0.000 C 
ATOM     22  C11 UNL     1      22.076  59.146 -12.690  0.00  0.00    +0.000 C 
ATOM     23  C12 UNL     1      22.887  58.265 -11.720  0.00  0.00    +0.002 C 
ATOM     24  C13 UNL     1      22.695  58.542 -10.217  0.00  0.00    +0.024 C 
ENDBRANCH   9  18
ENDBRANCH   4   7
BRANCH   1  26
ATOM     25  C1  UNL     1      19.147  64.810  -3.219  0.00  0.00    +0.253 C 
ATOM     26  O1  UNL     1      18.892  63.448  -2.893  0.00  0.00    -0.468 OA
ENDBRANCH   1  26
BRANCH   6  27
ATOM     27  O3  UNL     1      21.253  62.123  -2.516  0.00  0.00    -0.472 OA
BRANCH  27  28
ATOM     28  C23 UNL     1      22.017  61.273  -1.662  0.00  0.00    +0.206 C 
BRANCH  28  29
ATOM     29  C24 UNL     1      21.827  61.688  -0.202  0.00  0.00    +0.051 C 
BRANCH  29  30
ATOM     30  C25 UNL     1      21.012  60.642   0.573  0.00  0.00    +0.051 C 
BRANCH  30  31
ATOM     31  C26 UNL     1      20.649  59.446  -0.306  0.00  0.00    +0.206 C 
BRANCH  31  32
ATOM     32  O4  UNL     1      20.459  58.281   0.495  0.00  0.00    -0.475 OA
BRANCH  32  33
ATOM     33  C27 UNL     1      19.212  57.853   0.977  0.00  0.00    +0.139 A 
ATOM     34  C28 UNL     1      18.471  56.832   0.351  0.00  0.00    +0.037 A 
ATOM     35  C29 UNL     1      17.237  56.435   0.870  0.00  0.00    +0.006 A 
ATOM     36  C30 UNL     1      16.716  57.042   2.029  0.00  0.00    +0.040 A 
ATOM     37  C32 UNL     1      17.461  58.062   2.649  0.00  0.00    +0.006 A 
ATOM     38  C33 UNL     1      18.693  58.464   2.123  0.00  0.00    +0.037 A 
BRANCH  36  39
ATOM     39  C31 UNL     1      15.408  56.607   2.588  0.00  0.00    +0.208 A 
ATOM     40  N3  UNL     1      14.720  55.509   2.200  0.00  0.00    -0.106 NA
ATOM     41  N4  UNL     1      13.631  55.484   2.950  0.00  0.00    -0.021 NA
ATOM     42  N5  UNL     1      13.634  56.519   3.771  0.00  0.00    -0.021 NA
ATOM     43  N6  UNL     1      14.727  57.238   3.571  0.00  0.00    -0.106 NA
ENDBRANCH  36  39
ENDBRANCH  32  33
ENDBRANCH  31  32
ENDBRANCH  30  31
ENDBRANCH  29  30
ENDBRANCH  28  29
ENDBRANCH  27  28
ENDBRANCH   6  27
TORSDOF 11
ENDMDL
MODEL 6
REMARK VINA RESULT:      -7.8      1.809      2.461
REMARK  Name = ./data/4u7t_site_bc02/pdb/l1c1.pdb
REMARK  11 active torsions:
REMARK  status: ('A' for Active; 'I' for Inactive)
REMARK    1  A    between atoms: O1_2  and  C2_3
REMARK    2  A    between atoms: C5_6  and  C6_7
REMARK    3  A    between atoms: N2_9  and  C7_10
REMARK    4  A    between atoms: C22_26  and  O3_27
REMARK    5  A    between atoms: O3_27  and  C23_28
REMARK    6  A    between atoms: C23_28  and  C24_29
REMARK    7  A    between atoms: C24_29  and  C25_30
REMARK    8  A    between atoms: C25_30  and  C26_31
REMARK    9  A    between atoms: C26_31  and  O4_32
REMARK   10  A    between atoms: O4_32  and  C27_33
REMARK   11  A    between atoms: C30_36  and  C31_37
REMARK                            x       y       z     vdW  Elec       q    Type
REMARK                         _______ _______ _______ _____ _____    ______ ____
ROOT
ATOM      1  C2  UNL     1      21.478  61.301   1.452  0.00  0.00    +0.172 A 
ATOM      2  C3  UNL     1      20.844  61.235   2.704  0.00  0.00    +0.040 A 
ATOM      3  C4  UNL     1      19.906  60.237   2.972  0.00  0.00    +0.005 A 
ATOM      4  C5  UNL     1      19.586  59.269   2.002  0.00  0.00    +0.018 A 
ATOM      5  C21 UNL     1      20.239  59.331   0.754  0.00  0.00    +0.041 A 
ATOM      6  C22 UNL     1      21.168  60.351   0.469  0.00  0.00    +0.172 A 
ENDROOT
BRANCH   4   7
ATOM      7  C6  UNL     1      18.569  58.201   2.257  0.00  0.00    +0.079 C 
ATOM      8  N1  UNL     1      18.397  57.796   3.477  0.00  0.00    -0.172 NA
ATOM      9  N2  UNL     1      17.519  56.771   3.876  0.00  0.00    -0.222 N 
ATOM     10  C14 UNL     1      16.666  56.237   3.034  0.00  0.00    +0.253 C 
ATOM     11  O2  UNL     1      15.734  55.300   3.492  0.00  0.00    -0.271 OA
ATOM     12  C15 UNL     1      16.618  56.661   1.575  0.00  0.00    +0.091 C 
ATOM     13  C16 UNL     1      16.353  55.417   0.664  0.00  0.00    +0.035 C 
ATOM     14  C17 UNL     1      16.946  55.540  -0.714  0.00  0.00    -0.030 C 
ATOM     15  C18 UNL     1      18.167  56.060  -0.868  0.00  0.00    -0.030 C 
ATOM     16  C19 UNL     1      18.868  56.639   0.324  0.00  0.00    +0.032 C 
ATOM     17  C20 UNL     1      17.863  57.495   1.121  0.00  0.00    +0.056 C 
BRANCH   9  18
ATOM     18  C7  UNL     1      17.577  56.391   5.306  0.00  0.00    +0.108 C 
ATOM     19  C8  UNL     1      19.025  56.488   5.838  0.00  0.00    +0.024 C 
ATOM     20  C9  UNL     1      19.261  55.685   7.124  0.00  0.00    +0.002 C 
ATOM     21  C10 UNL     1      18.359  56.115   8.292  0.00  0.00    +0.000 C 
ATOM     22  C11 UNL     1      16.925  55.576   8.151  0.00  0.00    +0.000 C 
ATOM     23  C12 UNL     1      15.971  56.478   7.343  0.00  0.00    +0.002 C 
ATOM     24  C13 UNL     1      16.586  57.232   6.149  0.00  0.00    +0.024 C 
ENDBRANCH   9  18
ENDBRANCH   4   7
BRANCH   1  26
ATOM     25  C1  UNL     1      22.100  63.654   0.868  0.00  0.00    +0.253 C 
ATOM     26  O1  UNL     1      22.422  62.296   1.145  0.00  0.00    -0.468 OA
ENDBRANCH   1  26
BRANCH   6  27
ATOM     27  O3  UNL     1      21.798  60.458  -0.781  0.00  0.00    -0.472 OA
BRANCH  27  28
ATOM     28  C23 UNL     1      21.117  60.651  -2.019  0.00  0.00    +0.206 C 
BRANCH  28  29
ATOM     29  C24 UNL     1      21.306  62.089  -2.504  0.00  0.00    +0.051 C 
BRANCH  29  30
ATOM     30  C25 UNL     1      19.982  62.687  -3.002  0.00  0.00    +0.051 C 
BRANCH  30  31
ATOM     31  C26 UNL     1      20.037  63.016  -4.494  0.00  0.00    +0.206 C 
BRANCH  31  32
ATOM     32  O4  UNL     1      19.136  62.183  -5.219  0.00  0.00    -0.475 OA
BRANCH  32  33
ATOM     33  C27 UNL     1      19.492  60.954  -5.797  0.00  0.00    +0.139 A 
ATOM     34  C28 UNL     1      20.350  60.864  -6.909  0.00  0.00    +0.037 A 
ATOM     35  C29 UNL     1      20.681  59.618  -7.447  0.00  0.00    +0.006 A 
ATOM     36  C30 UNL     1      20.169  58.434  -6.885  0.00  0.00    +0.040 A 
ATOM     37  C32 UNL     1      19.309  58.531  -5.774  0.00  0.00    +0.006 A 
ATOM     38  C33 UNL     1      18.973  59.780  -5.242  0.00  0.00    +0.037 A 
BRANCH  36  39
ATOM     39  C31 UNL     1      20.534  57.108  -7.451  0.00  0.00    +0.208 A 
ATOM     40  N3  UNL     1      20.969  56.891  -8.713  0.00  0.00    -0.106 NA
ATOM     41  N4  UNL     1      21.191  55.590  -8.798  0.00  0.00    -0.021 NA
ATOM     42  N5  UNL     1      20.908  55.016  -7.643  0.00  0.00    -0.021 NA
ATOM     43  N6  UNL     1      20.497  55.933  -6.782  0.00  0.00    -0.106 NA
ENDBRANCH  36  39
ENDBRANCH  32  33
ENDBRANCH  31  32
ENDBRANCH  30  31
ENDBRANCH  29  30
ENDBRANCH  28  29
ENDBRANCH  27  28
ENDBRANCH   6  27
TORSDOF 11
ENDMDL
MODEL 7
REMARK VINA RESULT:      -7.6      2.861     12.496
REMARK  Name = ./data/4u7t_site_bc02/pdb/l1c1.pdb
REMARK  11 active torsions:
REMARK  status: ('A' for Active; 'I' for Inactive)
REMARK    1  A    between atoms: O1_2  and  C2_3
REMARK    2  A    between atoms: C5_6  and  C6_7
REMARK    3  A    between atoms: N2_9  and  C7_10
REMARK    4  A    between atoms: C22_26  and  O3_27
REMARK    5  A    between atoms: O3_27  and  C23_28
REMARK    6  A    between atoms: C23_28  and  C24_29
REMARK    7  A    between atoms: C24_29  and  C25_30
REMARK    8  A    between atoms: C25_30  and  C26_31
REMARK    9  A    between atoms: C26_31  and  O4_32
REMARK   10  A    between atoms: O4_32  and  C27_33
REMARK   11  A    between atoms: C30_36  and  C31_37
REMARK                            x       y       z     vdW  Elec       q    Type
REMARK                         _______ _______ _______ _____ _____    ______ ____
ROOT
ATOM      1  C2  UNL     1      19.715  62.373  -3.495  0.00  0.00    +0.172 A 
ATOM      2  C3  UNL     1      18.848  62.139  -4.577  0.00  0.00    +0.040 A 
ATOM      3  C4  UNL     1      19.058  61.059  -5.435  0.00  0.00    +0.005 A 
ATOM      4  C5  UNL     1      20.133  60.174  -5.229  0.00  0.00    +0.018 A 
ATOM      5  C21 UNL     1      20.989  60.404  -4.133  0.00  0.00    +0.041 A 
ATOM      6  C22 UNL     1      20.795  61.507  -3.278  0.00  0.00    +0.172 A 
ENDROOT
BRANCH   4   7
ATOM      7  C6  UNL     1      20.393  59.020  -6.145  0.00  0.00    +0.079 C 
ATOM      8  N1  UNL     1      20.734  59.276  -7.371  0.00  0.00    -0.172 NA
ATOM      9  N2  UNL     1      20.965  58.308  -8.367  0.00  0.00    -0.222 N 
ATOM     10  C14 UNL     1      21.007  57.029  -8.080  0.00  0.00    +0.253 C 
ATOM     11  O2  UNL     1      21.349  56.106  -9.073  0.00  0.00    -0.271 OA
ATOM     12  C15 UNL     1      20.758  56.523  -6.668  0.00  0.00    +0.091 C 
ATOM     13  C16 UNL     1      19.940  55.190  -6.714  0.00  0.00    +0.035 C 
ATOM     14  C17 UNL     1      19.070  54.973  -5.504  0.00  0.00    -0.030 C 
ATOM     15  C18 UNL     1      18.388  55.997  -4.984  0.00  0.00    -0.030 C 
ATOM     16  C19 UNL     1      18.610  57.375  -5.533  0.00  0.00    +0.032 C 
ATOM     17  C20 UNL     1      20.125  57.595  -5.719  0.00  0.00    +0.056 C 
BRANCH   9  18
ATOM     18  C7  UNL     1      21.222  58.832  -9.728  0.00  0.00    +0.108 C 
ATOM     19  C8  UNL     1      20.846  60.329  -9.816  0.00  0.00    +0.024 C 
ATOM     20  C9  UNL     1      20.629  60.823 -11.252  0.00  0.00    +0.002 C 
ATOM     21  C10 UNL     1      21.859  60.649 -12.156  0.00  0.00    +0.000 C 
ATOM     22  C11 UNL     1      22.039  59.194 -12.624  0.00  0.00    +0.000 C 
ATOM     23  C12 UNL     1      22.860  58.305 -11.670  0.00  0.00    +0.002 C 
ATOM     24  C13 UNL     1      22.685  58.569 -10.163  0.00  0.00    +0.024 C 
ENDBRANCH   9  18
ENDBRANCH   4   7
BRANCH   1  26
ATOM     25  C1  UNL     1      20.131  64.737  -2.785  0.00  0.00    +0.253 C 
ATOM     26  O1  UNL     1      19.537  63.454  -2.616  0.00  0.00    -0.468 OA
ENDBRANCH   1  26
BRANCH   6  27
ATOM     27  O3  UNL     1      21.660  61.781  -2.206  0.00  0.00    -0.472 OA
BRANCH  27  28
ATOM     28  C23 UNL     1      21.661  61.078  -0.965  0.00  0.00    +0.206 C 
BRANCH  28  29
ATOM     29  C24 UNL     1      21.914  62.050   0.189  0.00  0.00    +0.051 C 
BRANCH  29  30
ATOM     30  C25 UNL     1      21.572  61.409   1.543  0.00  0.00    +0.051 C 
BRANCH  30  31
ATOM     31  C26 UNL     1      20.577  60.259   1.387  0.00  0.00    +0.206 C 
BRANCH  31  32
ATOM     32  O4  UNL     1      19.677  60.230   2.493  0.00  0.00    -0.475 OA
BRANCH  32  33
ATOM     33  C27 UNL     1      19.613  59.185   3.428  0.00  0.00    +0.139 A 
ATOM     34  C28 UNL     1      20.761  58.508   3.881  0.00  0.00    +0.037 A 
ATOM     35  C29 UNL     1      20.649  57.476   4.817  0.00  0.00    +0.006 A 
ATOM     36  C30 UNL     1      19.392  57.102   5.327  0.00  0.00    +0.040 A 
ATOM     37  C32 UNL     1      18.249  57.782   4.868  0.00  0.00    +0.006 A 
ATOM     38  C33 UNL     1      18.362  58.809   3.925  0.00  0.00    +0.037 A 
BRANCH  36  39
ATOM     39  C31 UNL     1      19.278  56.014   6.334  0.00  0.00    +0.208 A 
ATOM     40  N3  UNL     1      20.293  55.220   6.745  0.00  0.00    -0.106 NA
ATOM     41  N4  UNL     1      19.771  54.406   7.647  0.00  0.00    -0.021 NA
ATOM     42  N5  UNL     1      18.486  54.675   7.795  0.00  0.00    -0.021 NA
ATOM     43  N6  UNL     1      18.147  55.671   6.993  0.00  0.00    -0.106 NA
ENDBRANCH  36  39
ENDBRANCH  32  33
ENDBRANCH  31  32
ENDBRANCH  30  31
ENDBRANCH  29  30
ENDBRANCH  28  29
ENDBRANCH  27  28
ENDBRANCH   6  27
TORSDOF 11
ENDMDL
MODEL 8
REMARK VINA RESULT:      -6.2      3.702      4.523
REMARK  Name = ./data/4u7t_site_bc02/pdb/l1c1.pdb
REMARK  11 active torsions:
REMARK  status: ('A' for Active; 'I' for Inactive)
REMARK    1  A    between atoms: O1_2  and  C2_3
REMARK    2  A    between atoms: C5_6  and  C6_7
REMARK    3  A    between atoms: N2_9  and  C7_10
REMARK    4  A    between atoms: C22_26  and  O3_27
REMARK    5  A    between atoms: O3_27  and  C23_28
REMARK    6  A    between atoms: C23_28  and  C24_29
REMARK    7  A    between atoms: C24_29  and  C25_30
REMARK    8  A    between atoms: C25_30  and  C26_31
REMARK    9  A    between atoms: C26_31  and  O4_32
REMARK   10  A    between atoms: O4_32  and  C27_33
REMARK   11  A    between atoms: C30_36  and  C31_37
REMARK                            x       y       z     vdW  Elec       q    Type
REMARK                         _______ _______ _______ _____ _____    ______ ____
ROOT
ATOM      1  C2  UNL     1      21.276  61.096   1.505  0.00  0.00    +0.172 A 
ATOM      2  C3  UNL     1      20.865  60.987   2.844  0.00  0.00    +0.040 A 
ATOM      3  C4  UNL     1      20.015  59.955   3.245  0.00  0.00    +0.005 A 
ATOM      4  C5  UNL     1      19.562  58.995   2.321  0.00  0.00    +0.018 A 
ATOM      5  C21 UNL     1      19.992  59.100   0.982  0.00  0.00    +0.041 A 
ATOM      6  C22 UNL     1      20.831  60.153   0.568  0.00  0.00    +0.172 A 
ENDROOT
BRANCH   4   7
ATOM      7  C6  UNL     1      18.634  57.892   2.719  0.00  0.00    +0.079 C 
ATOM      8  N1  UNL     1      18.757  57.386   3.908  0.00  0.00    -0.172 NA
ATOM      9  N2  UNL     1      17.998  56.315   4.416  0.00  0.00    -0.222 N 
ATOM     10  C14 UNL     1      16.968  55.836   3.759  0.00  0.00    +0.253 C 
ATOM     11  O2  UNL     1      16.170  54.848   4.345  0.00  0.00    -0.271 OA
ATOM     12  C15 UNL     1      16.574  56.377   2.394  0.00  0.00    +0.091 C 
ATOM     13  C16 UNL     1      16.097  55.207   1.472  0.00  0.00    +0.035 C 
ATOM     14  C17 UNL     1      16.345  55.453   0.007  0.00  0.00    -0.030 C 
ATOM     15  C18 UNL     1      17.496  56.005  -0.388  0.00  0.00    -0.030 C 
ATOM     16  C19 UNL     1      18.462  56.499   0.647  0.00  0.00    +0.032 C 
ATOM     17  C20 UNL     1      17.676  57.268   1.730  0.00  0.00    +0.056 C 
BRANCH   9  18
ATOM     18  C7  UNL     1      18.394  55.821   5.755  0.00  0.00    +0.108 C 
ATOM     19  C8  UNL     1      17.187  55.839   6.721  0.00  0.00    +0.024 C 
ATOM     20  C9  UNL     1      17.587  55.805   8.202  0.00  0.00    +0.002 C 
ATOM     21  C10 UNL     1      18.412  54.568   8.589  0.00  0.00    +0.000 C 
ATOM     22  C11 UNL     1      19.879  54.679   8.137  0.00  0.00    +0.000 C 
ATOM     23  C12 UNL     1      20.156  54.172   6.709  0.00  0.00    +0.002 C 
ATOM     24  C13 UNL     1      19.051  54.422   5.664  0.00  0.00    +0.024 C 
ENDBRANCH   9  18
ENDBRANCH   4   7
BRANCH   1  26
ATOM     25  C1  UNL     1      23.209  62.654   1.823  0.00  0.00    +0.253 C 
ATOM     26  O1  UNL     1      22.126  62.125   1.066  0.00  0.00    -0.468 OA
ENDBRANCH   1  26
BRANCH   6  27
ATOM     27  O3  UNL     1      21.236  60.302  -0.768  0.00  0.00    -0.472 OA
BRANCH  27  28
ATOM     28  C23 UNL     1      21.638  59.230  -1.618  0.00  0.00    +0.206 C 
BRANCH  28  29
ATOM     29  C24 UNL     1      21.156  59.484  -3.048  0.00  0.00    +0.051 C 
BRANCH  29  30
ATOM     30  C25 UNL     1      19.692  59.056  -3.227  0.00  0.00    +0.051 C 
BRANCH  30  31
ATOM     31  C26 UNL     1      19.257  59.131  -4.689  0.00  0.00    +0.206 C 
BRANCH  31  32
ATOM     32  O4  UNL     1      19.824  60.279  -5.317  0.00  0.00    -0.475 OA
BRANCH  32  33
ATOM     33  C27 UNL     1      19.697  61.588  -4.826  0.00  0.00    +0.139 A 
ATOM     34  C28 UNL     1      20.797  62.326  -4.351  0.00  0.00    +0.037 A 
ATOM     35  C29 UNL     1      20.623  63.628  -3.877  0.00  0.00    +0.006 A 
ATOM     36  C30 UNL     1      19.349  64.226  -3.872  0.00  0.00    +0.040 A 
ATOM     37  C32 UNL     1      18.253  63.482  -4.347  0.00  0.00    +0.006 A 
ATOM     38  C33 UNL     1      18.428  62.176  -4.814  0.00  0.00    +0.037 A 
BRANCH  36  39
ATOM     39  C31 UNL     1      19.169  65.618  -3.379  0.00  0.00    +0.208 A 
ATOM     40  N3  UNL     1      18.311  65.997  -2.405  0.00  0.00    -0.106 NA
ATOM     41  N4  UNL     1      18.475  67.302  -2.269  0.00  0.00    -0.021 NA
ATOM     42  N5  UNL     1      19.393  67.724  -3.121  0.00  0.00    -0.021 NA
ATOM     43  N6  UNL     1      19.845  66.701  -3.826  0.00  0.00    -0.106 NA
ENDBRANCH  36  39
ENDBRANCH  32  33
ENDBRANCH  31  32
ENDBRANCH  30  31
ENDBRANCH  29  30
ENDBRANCH  28  29
ENDBRANCH  27  28
ENDBRANCH   6  27
TORSDOF 11
ENDMDL
