MODEL 1
REMARK VINA RESULT:      -5.9      0.000      0.000
REMARK  Name = ./data/4u7t_site_bc02/pdb/l1c1.pdb
REMARK  11 active torsions:
REMARK  status: ('A' for Active; 'I' for Inactive)
REMARK    1  A    between atoms: O1_2  and  C2_3
REMARK    2  A    between atoms: C5_6  and  C6_7
REMARK    3  A    between atoms: N2_9  and  C7_10
REMARK    4  A    between atoms: C22_26  and  O3_27
REMARK    5  A    between atoms: O3_27  and  C23_28
REMARK    6  A    between atoms: C23_28  and  C24_29
REMARK    7  A    between atoms: C24_29  and  C25_30
REMARK    8  A    between atoms: C25_30  and  C26_31
REMARK    9  A    between atoms: C26_31  and  O4_32
REMARK   10  A    between atoms: O4_32  and  C27_33
REMARK   11  A    between atoms: C30_36  and  C31_37
REMARK                            x       y       z     vdW  Elec       q    Type
REMARK                         _______ _______ _______ _____ _____    ______ ____
ROOT
ATOM      1  C2  UNL     1      19.717  58.542  -5.619  0.00  0.00    +0.172 A 
ATOM      2  C3  UNL     1      19.857  59.765  -6.296  0.00  0.00    +0.040 A 
ATOM      3  C4  UNL     1      20.077  60.948  -5.588  0.00  0.00    +0.005 A 
ATOM      4  C5  UNL     1      20.178  60.939  -4.185  0.00  0.00    +0.018 A 
ATOM      5  C21 UNL     1      20.053  59.706  -3.513  0.00  0.00    +0.041 A 
ATOM      6  C22 UNL     1      19.807  58.513  -4.220  0.00  0.00    +0.172 A 
ENDROOT
BRANCH   4   7
ATOM      7  C6  UNL     1      20.393  62.195  -3.401  0.00  0.00    +0.079 C 
ATOM      8  N1  UNL     1      21.209  62.157  -2.393  0.00  0.00    -0.172 NA
ATOM      9  N2  UNL     1      21.482  63.233  -1.528  0.00  0.00    -0.222 N 
ATOM     10  C14 UNL     1      21.036  64.442  -1.781  0.00  0.00    +0.253 C 
ATOM     11  O2  UNL     1      21.420  65.507  -0.961  0.00  0.00    -0.271 OA
ATOM     12  C15 UNL     1      20.160  64.729  -2.989  0.00  0.00    +0.091 C 
ATOM     13  C16 UNL     1      19.055  65.771  -2.613  0.00  0.00    +0.035 C 
ATOM     14  C17 UNL     1      17.788  65.624  -3.413  0.00  0.00    -0.030 C 
ATOM     15  C18 UNL     1      17.303  64.406  -3.669  0.00  0.00    -0.030 C 
ATOM     16  C19 UNL     1      18.106  63.202  -3.274  0.00  0.00    +0.032 C 
ATOM     17  C20 UNL     1      19.579  63.442  -3.664  0.00  0.00    +0.056 C 
BRANCH   9  18
ATOM     18  C7  UNL     1      22.353  62.927  -0.370  0.00  0.00    +0.108 C 
ATOM     19  C8  UNL     1      21.505  62.518   0.856  0.00  0.00    +0.024 C 
ATOM     20  C9  UNL     1      22.255  62.644   2.188  0.00  0.00    +0.002 C 
ATOM     21  C10 UNL     1      23.530  61.790   2.261  0.00  0.00    +0.000 C 
ATOM     22  C11 UNL     1      24.698  62.417   1.480  0.00  0.00    +0.000 C 
ATOM     23  C12 UNL     1      24.761  62.030  -0.011  0.00  0.00    +0.002 C 
ATOM     24  C13 UNL     1      23.412  61.857  -0.733  0.00  0.00    +0.024 C 
ENDBRANCH   9  18
ENDBRANCH   4   7
BRANCH   1  26
ATOM     25  C1  UNL     1      19.582  57.173  -7.709  0.00  0.00    +0.253 C 
ATOM     26  O1  UNL     1      19.487  57.334  -6.298  0.00  0.00    -0.468 OA
ENDBRANCH   1  26
BRANCH   6  27
ATOM     27  O3  UNL     1      19.637  57.281  -3.569  0.00  0.00    -0.472 OA
BRANCH  27  28
ATOM     28  C23 UNL     1      19.197  57.130  -2.221  0.00  0.00    +0.206 C 
BRANCH  28  29
ATOM     29  C24 UNL     1      20.058  57.983  -1.288  0.00  0.00    +0.051 C 
BRANCH  29  30
ATOM     30  C25 UNL     1      19.889  57.552   0.177  0.00  0.00    +0.051 C 
BRANCH  30  31
ATOM     31  C26 UNL     1      19.588  58.743   1.085  0.00  0.00    +0.206 C 
BRANCH  31  32
ATOM     32  O4  UNL     1      19.326  58.299   2.414  0.00  0.00    -0.475 OA
BRANCH  32  33
ATOM     33  C27 UNL     1      18.041  58.182   2.967  0.00  0.00    +0.139 A 
ATOM     34  C28 UNL     1      17.778  58.435   4.326  0.00  0.00    +0.037 A 
ATOM     35  C29 UNL     1      16.481  58.311   4.830  0.00  0.00    +0.006 A 
ATOM     36  C30 UNL     1      15.416  57.939   3.989  0.00  0.00    +0.040 A 
ATOM     37  C32 UNL     1      15.686  57.687   2.631  0.00  0.00    +0.006 A 
ATOM     38  C33 UNL     1      16.987  57.804   2.130  0.00  0.00    +0.037 A 
BRANCH  36  39
ATOM     39  C31 UNL     1      14.034  57.822   4.525  0.00  0.00    +0.208 A 
ATOM     40  N3  UNL     1      13.022  57.147   3.935  0.00  0.00    -0.106 NA
ATOM     41  N4  UNL     1      11.981  57.283   4.740  0.00  0.00    -0.021 NA
ATOM     42  N5  UNL     1      12.324  58.012   5.788  0.00  0.00    -0.021 NA
ATOM     43  N6  UNL     1      13.595  58.363   5.685  0.00  0.00    -0.106 NA
ENDBRANCH  36  39
ENDBRANCH  32  33
ENDBRANCH  31  32
ENDBRANCH  30  31
ENDBRANCH  29  30
ENDBRANCH  28  29
ENDBRANCH  27  28
ENDBRANCH   6  27
TORSDOF 11
ENDMDL
MODEL 2
REMARK VINA RESULT:      -3.5      2.084      4.634
REMARK  Name = ./data/4u7t_site_bc02/pdb/l1c1.pdb
REMARK  11 active torsions:
REMARK  status: ('A' for Active; 'I' for Inactive)
REMARK    1  A    between atoms: O1_2  and  C2_3
REMARK    2  A    between atoms: C5_6  and  C6_7
REMARK    3  A    between atoms: N2_9  and  C7_10
REMARK    4  A    between atoms: C22_26  and  O3_27
REMARK    5  A    between atoms: O3_27  and  C23_28
REMARK    6  A    between atoms: C23_28  and  C24_29
REMARK    7  A    between atoms: C24_29  and  C25_30
REMARK    8  A    between atoms: C25_30  and  C26_31
REMARK    9  A    between atoms: C26_31  and  O4_32
REMARK   10  A    between atoms: O4_32  and  C27_33
REMARK   11  A    between atoms: C30_36  and  C31_37
REMARK                            x       y       z     vdW  Elec       q    Type
REMARK                         _______ _______ _______ _____ _____    ______ ____
ROOT
ATOM      1  C2  UNL     1      17.857  59.845  -6.578  0.00  0.00    +0.172 A 
ATOM      2  C3  UNL     1      17.131  60.924  -6.043  0.00  0.00    +0.040 A 
ATOM      3  C4  UNL     1      17.709  61.767  -5.093  0.00  0.00    +0.005 A 
ATOM      4  C5  UNL     1      19.033  61.565  -4.661  0.00  0.00    +0.018 A 
ATOM      5  C21 UNL     1      19.761  60.492  -5.213  0.00  0.00    +0.041 A 
ATOM      6  C22 UNL     1      19.175  59.623  -6.154  0.00  0.00    +0.172 A 
ENDROOT
BRANCH   4   7
ATOM      7  C6  UNL     1      19.669  62.442  -3.628  0.00  0.00    +0.079 C 
ATOM      8  N1  UNL     1      19.661  63.725  -3.823  0.00  0.00    -0.172 NA
ATOM      9  N2  UNL     1      20.257  64.678  -2.976  0.00  0.00    -0.222 N 
ATOM     10  C14 UNL     1      20.746  64.341  -1.806  0.00  0.00    +0.253 C 
ATOM     11  O2  UNL     1      21.228  65.331  -0.945  0.00  0.00    -0.271 OA
ATOM     12  C15 UNL     1      20.741  62.898  -1.329  0.00  0.00    +0.091 C 
ATOM     13  C16 UNL     1      22.064  62.585  -0.555  0.00  0.00    +0.035 C 
ATOM     14  C17 UNL     1      22.491  61.144  -0.646  0.00  0.00    -0.030 C 
ATOM     15  C18 UNL     1      22.388  60.493  -1.808  0.00  0.00    -0.030 C 
ATOM     16  C19 UNL     1      21.720  61.169  -2.967  0.00  0.00    +0.032 C 
ATOM     17  C20 UNL     1      20.437  61.861  -2.462  0.00  0.00    +0.056 C 
BRANCH   9  18
ATOM     18  C7  UNL     1      20.230  66.077  -3.460  0.00  0.00    +0.108 C 
ATOM     19  C8  UNL     1      21.076  66.226  -4.745  0.00  0.00    +0.024 C 
ATOM     20  C9  UNL     1      21.492  67.672  -5.042  0.00  0.00    +0.002 C 
ATOM     21  C10 UNL     1      20.303  68.631  -5.213  0.00  0.00    +0.000 C 
ATOM     22  C11 UNL     1      19.674  69.028  -3.867  0.00  0.00    +0.000 C 
ATOM     23  C12 UNL     1      18.576  68.074  -3.359  0.00  0.00    +0.002 C 
ATOM     24  C13 UNL     1      18.777  66.576  -3.655  0.00  0.00    +0.024 C 
ENDBRANCH   9  18
ENDBRANCH   4   7
BRANCH   1  26
ATOM     25  C1  UNL     1      17.415  57.554  -7.483  0.00  0.00    +0.253 C 
ATOM     26  O1  UNL     1      17.305  58.973  -7.530  0.00  0.00    -0.468 OA
ENDBRANCH   1  26
BRANCH   6  27
ATOM     27  O3  UNL     1      19.867  58.523  -6.686  0.00  0.00    -0.472 OA
BRANCH  27  28
ATOM     28  C23 UNL     1      19.865  57.214  -6.121  0.00  0.00    +0.206 C 
BRANCH  28  29
ATOM     29  C24 UNL     1      19.177  57.231  -4.755  0.00  0.00    +0.051 C 
BRANCH  29  30
ATOM     30  C25 UNL     1      20.205  57.283  -3.615  0.00  0.00    +0.051 C 
BRANCH  30  31
ATOM     31  C26 UNL     1      19.809  58.299  -2.545  0.00  0.00    +0.206 C 
BRANCH  31  32
ATOM     32  O4  UNL     1      20.361  57.930  -1.283  0.00  0.00    -0.475 OA
BRANCH  32  33
ATOM     33  C27 UNL     1      19.637  57.916  -0.080  0.00  0.00    +0.139 A 
ATOM     34  C28 UNL     1      20.052  58.631   1.059  0.00  0.00    +0.037 A 
ATOM     35  C29 UNL     1      19.296  58.592   2.233  0.00  0.00    +0.006 A 
ATOM     36  C30 UNL     1      18.104  57.845   2.295  0.00  0.00    +0.040 A 
ATOM     37  C32 UNL     1      17.696  57.132   1.152  0.00  0.00    +0.006 A 
ATOM     38  C33 UNL     1      18.459  57.166  -0.019  0.00  0.00    +0.037 A 
BRANCH  36  39
ATOM     39  C31 UNL     1      17.293  57.817   3.541  0.00  0.00    +0.208 A 
ATOM     40  N3  UNL     1      16.035  57.333   3.643  0.00  0.00    -0.106 NA
ATOM     41  N4  UNL     1      15.692  57.484   4.911  0.00  0.00    -0.021 NA
ATOM     42  N5  UNL     1      16.690  58.040   5.576  0.00  0.00    -0.021 NA
ATOM     43  N6  UNL     1      17.702  58.259   4.752  0.00  0.00    -0.106 NA
ENDBRANCH  36  39
ENDBRANCH  32  33
ENDBRANCH  31  32
ENDBRANCH  30  31
ENDBRANCH  29  30
ENDBRANCH  28  29
ENDBRANCH  27  28
ENDBRANCH   6  27
TORSDOF 11
ENDMDL
