MODEL 1
REMARK VINA RESULT:      -8.5      0.000      0.000
REMARK  Name = ./data/4u7t_site_bc02/pdb/l0c0.pdb
REMARK  11 active torsions:
REMARK  status: ('A' for Active; 'I' for Inactive)
REMARK    1  A    between atoms: O1_2  and  C2_3
REMARK    2  A    between atoms: C5_6  and  C6_7
REMARK    3  A    between atoms: N2_9  and  C7_10
REMARK    4  A    between atoms: C19_23  and  O3_24
REMARK    5  A    between atoms: O3_24  and  C20_25
REMARK    6  A    between atoms: C20_25  and  C21_26
REMARK    7  A    between atoms: C21_26  and  C22_27
REMARK    8  A    between atoms: C22_27  and  C23_28
REMARK    9  A    between atoms: C23_28  and  O4_29
REMARK   10  A    between atoms: O4_29  and  C24_30
REMARK   11  A    between atoms: C27_33  and  C28_34
REMARK                            x       y       z     vdW  Elec       q    Type
REMARK                         _______ _______ _______ _____ _____    ______ ____
ROOT
ATOM      1  C2  UNL     1      21.479  61.009  -0.093  0.00  0.00    +0.172 A 
ATOM      2  C3  UNL     1      21.362  61.617   1.171  0.00  0.00    +0.040 A 
ATOM      3  C4  UNL     1      20.711  60.963   2.219  0.00  0.00    +0.005 A 
ATOM      4  C5  UNL     1      20.158  59.685   2.031  0.00  0.00    +0.019 A 
ATOM      5  C18 UNL     1      20.256  59.094   0.757  0.00  0.00    +0.041 A 
ATOM      6  C19 UNL     1      20.931  59.736  -0.298  0.00  0.00    +0.172 A 
ENDROOT
BRANCH   4   7
ATOM      7  C6  UNL     1      19.497  58.921   3.129  0.00  0.00    +0.086 C 
ATOM      8  N1  UNL     1      18.399  58.269   2.912  0.00  0.00    -0.171 NA
ATOM      9  N2  UNL     1      17.993  57.606   4.067  0.00  0.00    -0.222 N 
ATOM     10  C14 UNL     1      18.826  57.838   5.026  0.00  0.00    +0.257 C 
ATOM     11  O2  UNL     1      18.682  57.314   6.310  0.00  0.00    -0.270 OA
ATOM     12  C15 UNL     1      19.952  58.724   4.568  0.00  0.00    +0.110 C 
ATOM     13  C16 UNL     1      19.950  60.033   5.373  0.00  0.00    +0.015 C 
ATOM     14  C17 UNL     1      21.284  57.959   4.670  0.00  0.00    +0.015 C 
BRANCH   9  15
ATOM     15  C7  UNL     1      16.799  56.752   4.123  0.00  0.00    +0.108 C 
ATOM     16  C8  UNL     1      15.782  57.224   3.060  0.00  0.00    +0.024 C 
ATOM     17  C9  UNL     1      14.649  56.221   2.785  0.00  0.00    +0.002 C 
ATOM     18  C10 UNL     1      15.005  55.238   1.657  0.00  0.00    +0.000 C 
ATOM     19  C11 UNL     1      16.004  54.151   2.074  0.00  0.00    +0.000 C 
ATOM     20  C12 UNL     1      17.337  54.707   2.597  0.00  0.00    +0.002 C 
ATOM     21  C13 UNL     1      17.216  55.263   4.028  0.00  0.00    +0.024 C 
ENDBRANCH   9  15
ENDBRANCH   4   7
BRANCH   1  23
ATOM     22  C1  UNL     1      22.466  63.021  -1.209  0.00  0.00    +0.253 C 
ATOM     23  O1  UNL     1      22.130  61.637  -1.166  0.00  0.00    -0.468 OA
ENDBRANCH   1  23
BRANCH   6  24
ATOM     24  O3  UNL     1      21.081  59.140  -1.565  0.00  0.00    -0.472 OA
BRANCH  24  25
ATOM     25  C20 UNL     1      20.027  58.919  -2.505  0.00  0.00    +0.206 C 
BRANCH  25  26
ATOM     26  C21 UNL     1      20.309  57.681  -3.367  0.00  0.00    +0.051 C 
BRANCH  26  27
ATOM     27  C22 UNL     1      19.333  57.603  -4.546  0.00  0.00    +0.051 C 
BRANCH  27  28
ATOM     28  C23 UNL     1      20.021  57.989  -5.860  0.00  0.00    +0.206 C 
BRANCH  28  29
ATOM     29  O4  UNL     1      19.506  59.230  -6.347  0.00  0.00    -0.475 OA
BRANCH  29  30
ATOM     30  C24 UNL     1      19.585  60.461  -5.673  0.00  0.00    +0.139 A 
ATOM     31  C25 UNL     1      20.808  61.096  -5.387  0.00  0.00    +0.037 A 
ATOM     32  C26 UNL     1      20.829  62.321  -4.712  0.00  0.00    +0.006 A 
ATOM     33  C27 UNL     1      19.630  62.938  -4.315  0.00  0.00    +0.040 A 
ATOM     34  C29 UNL     1      18.411  62.303  -4.608  0.00  0.00    +0.006 A 
ATOM     35  C30 UNL     1      18.392  61.077  -5.281  0.00  0.00    +0.037 A 
BRANCH  33  36
ATOM     36  C28 UNL     1      19.652  64.238  -3.601  0.00  0.00    +0.208 A 
ATOM     37  N3  UNL     1      18.602  64.792  -2.954  0.00  0.00    -0.106 NA
ATOM     38  N4  UNL     1      19.045  65.941  -2.470  0.00  0.00    -0.021 NA
ATOM     39  N5  UNL     1      20.317  66.097  -2.796  0.00  0.00    -0.021 NA
ATOM     40  N6  UNL     1      20.724  65.055  -3.500  0.00  0.00    -0.106 NA
ENDBRANCH  33  36
ENDBRANCH  29  30
ENDBRANCH  28  29
ENDBRANCH  27  28
ENDBRANCH  26  27
ENDBRANCH  25  26
ENDBRANCH  24  25
ENDBRANCH   6  24
TORSDOF 11
ENDMDL
MODEL 2
REMARK VINA RESULT:      -8.4      1.666      2.205
REMARK  Name = ./data/4u7t_site_bc02/pdb/l0c0.pdb
REMARK  11 active torsions:
REMARK  status: ('A' for Active; 'I' for Inactive)
REMARK    1  A    between atoms: O1_2  and  C2_3
REMARK    2  A    between atoms: C5_6  and  C6_7
REMARK    3  A    between atoms: N2_9  and  C7_10
REMARK    4  A    between atoms: C19_23  and  O3_24
REMARK    5  A    between atoms: O3_24  and  C20_25
REMARK    6  A    between atoms: C20_25  and  C21_26
REMARK    7  A    between atoms: C21_26  and  C22_27
REMARK    8  A    between atoms: C22_27  and  C23_28
REMARK    9  A    between atoms: C23_28  and  O4_29
REMARK   10  A    between atoms: O4_29  and  C24_30
REMARK   11  A    between atoms: C27_33  and  C28_34
REMARK                            x       y       z     vdW  Elec       q    Type
REMARK                         _______ _______ _______ _____ _____    ______ ____
ROOT
ATOM      1  C2  UNL     1      21.020  60.997   1.220  0.00  0.00    +0.172 A 
ATOM      2  C3  UNL     1      20.894  61.319   2.584  0.00  0.00    +0.040 A 
ATOM      3  C4  UNL     1      20.282  60.431   3.472  0.00  0.00    +0.005 A 
ATOM      4  C5  UNL     1      19.777  59.201   3.019  0.00  0.00    +0.019 A 
ATOM      5  C18 UNL     1      19.884  58.897   1.648  0.00  0.00    +0.041 A 
ATOM      6  C19 UNL     1      20.520  59.774   0.751  0.00  0.00    +0.172 A 
ENDROOT
BRANCH   4   7
ATOM      7  C6  UNL     1      19.159  58.195   3.932  0.00  0.00    +0.086 C 
ATOM      8  N1  UNL     1      17.960  58.367   4.390  0.00  0.00    -0.171 NA
ATOM      9  N2  UNL     1      17.586  57.287   5.186  0.00  0.00    -0.222 N 
ATOM     10  C14 UNL     1      18.547  56.426   5.243  0.00  0.00    +0.257 C 
ATOM     11  O2  UNL     1      18.470  55.239   5.971  0.00  0.00    -0.270 OA
ATOM     12  C15 UNL     1      19.728  56.871   4.423  0.00  0.00    +0.110 C 
ATOM     13  C16 UNL     1      20.955  57.053   5.329  0.00  0.00    +0.015 C 
ATOM     14  C17 UNL     1      19.968  55.867   3.281  0.00  0.00    +0.015 C 
BRANCH   9  15
ATOM     15  C7  UNL     1      16.264  57.177   5.818  0.00  0.00    +0.108 C 
ATOM     16  C8  UNL     1      15.596  58.570   5.849  0.00  0.00    +0.024 C 
ATOM     17  C9  UNL     1      14.092  58.537   6.171  0.00  0.00    +0.002 C 
ATOM     18  C10 UNL     1      13.230  58.421   4.904  0.00  0.00    +0.000 C 
ATOM     19  C11 UNL     1      13.231  57.019   4.280  0.00  0.00    +0.000 C 
ATOM     20  C12 UNL     1      14.630  56.515   3.896  0.00  0.00    +0.002 C 
ATOM     21  C13 UNL     1      15.444  56.062   5.123  0.00  0.00    +0.024 C 
ENDBRANCH   9  15
ENDBRANCH   4   7
BRANCH   1  23
ATOM     22  C1  UNL     1      23.006  62.239   0.339  0.00  0.00    +0.253 C 
ATOM     23  O1  UNL     1      21.633  61.864   0.301  0.00  0.00    -0.468 OA
ENDBRANCH   1  23
BRANCH   6  24
ATOM     24  O3  UNL     1      20.678  59.467  -0.613  0.00  0.00    -0.472 OA
BRANCH  24  25
ATOM     25  C20 UNL     1      20.067  58.366  -1.290  0.00  0.00    +0.206 C 
BRANCH  25  26
ATOM     26  C21 UNL     1      20.649  58.193  -2.700  0.00  0.00    +0.051 C 
BRANCH  26  27
ATOM     27  C22 UNL     1      19.531  58.036  -3.736  0.00  0.00    +0.051 C 
BRANCH  27  28
ATOM     28  C23 UNL     1      19.585  59.156  -4.781  0.00  0.00    +0.206 C 
BRANCH  28  29
ATOM     29  O4  UNL     1      20.474  60.190  -4.358  0.00  0.00    -0.475 OA
BRANCH  29  30
ATOM     30  C24 UNL     1      20.089  61.490  -3.989  0.00  0.00    +0.139 A 
ATOM     31  C25 UNL     1      20.814  62.266  -3.064  0.00  0.00    +0.037 A 
ATOM     32  C26 UNL     1      20.384  63.555  -2.731  0.00  0.00    +0.006 A 
ATOM     33  C27 UNL     1      19.227  64.096  -3.318  0.00  0.00    +0.040 A 
ATOM     34  C29 UNL     1      18.510  63.320  -4.244  0.00  0.00    +0.006 A 
ATOM     35  C30 UNL     1      18.940  62.031  -4.575  0.00  0.00    +0.037 A 
BRANCH  33  36
ATOM     36  C28 UNL     1      18.774  65.464  -2.965  0.00  0.00    +0.208 A 
ATOM     37  N3  UNL     1      17.571  65.994  -3.283  0.00  0.00    -0.106 NA
ATOM     38  N4  UNL     1      17.580  67.223  -2.793  0.00  0.00    -0.021 NA
ATOM     39  N5  UNL     1      18.735  67.450  -2.191  0.00  0.00    -0.021 NA
ATOM     40  N6  UNL     1      19.500  66.375  -2.282  0.00  0.00    -0.106 NA
ENDBRANCH  33  36
ENDBRANCH  29  30
ENDBRANCH  28  29
ENDBRANCH  27  28
ENDBRANCH  26  27
ENDBRANCH  25  26
ENDBRANCH  24  25
ENDBRANCH   6  24
TORSDOF 11
ENDMDL
MODEL 3
REMARK VINA RESULT:      -8.2      3.958      4.811
REMARK  Name = ./data/4u7t_site_bc02/pdb/l0c0.pdb
REMARK  11 active torsions:
REMARK  status: ('A' for Active; 'I' for Inactive)
REMARK    1  A    between atoms: O1_2  and  C2_3
REMARK    2  A    between atoms: C5_6  and  C6_7
REMARK    3  A    between atoms: N2_9  and  C7_10
REMARK    4  A    between atoms: C19_23  and  O3_24
REMARK    5  A    between atoms: O3_24  and  C20_25
REMARK    6  A    between atoms: C20_25  and  C21_26
REMARK    7  A    between atoms: C21_26  and  C22_27
REMARK    8  A    between atoms: C22_27  and  C23_28
REMARK    9  A    between atoms: C23_28  and  O4_29
REMARK   10  A    between atoms: O4_29  and  C24_30
REMARK   11  A    between atoms: C27_33  and  C28_34
REMARK                            x       y       z     vdW  Elec       q    Type
REMARK                         _______ _______ _______ _____ _____    ______ ____
ROOT
ATOM      1  C2  UNL     1      21.830  61.711   1.049  0.00  0.00    +0.172 A 
ATOM      2  C3  UNL     1      21.455  61.782   2.404  0.00  0.00    +0.040 A 
ATOM      3  C4  UNL     1      20.549  60.864   2.942  0.00  0.00    +0.005 A 
ATOM      4  C5  UNL     1      19.993  59.855   2.139  0.00  0.00    +0.019 A 
ATOM      5  C18 UNL     1      20.352  59.805   0.779  0.00  0.00    +0.041 A 
ATOM      6  C19 UNL     1      21.283  60.711   0.234  0.00  0.00    +0.172 A 
ENDROOT
BRANCH   4   7
ATOM      7  C6  UNL     1      19.060  58.820   2.674  0.00  0.00    +0.086 C 
ATOM      8  N1  UNL     1      17.895  58.639   2.137  0.00  0.00    -0.171 NA
ATOM      9  N2  UNL     1      17.222  57.601   2.776  0.00  0.00    -0.222 N 
ATOM     10  C14 UNL     1      17.953  57.120   3.726  0.00  0.00    +0.257 C 
ATOM     11  O2  UNL     1      17.545  56.071   4.550  0.00  0.00    -0.270 OA
ATOM     12  C15 UNL     1      19.278  57.827   3.807  0.00  0.00    +0.110 C 
ATOM     13  C16 UNL     1      19.423  58.513   5.174  0.00  0.00    +0.015 C 
ATOM     14  C17 UNL     1      20.413  56.830   3.513  0.00  0.00    +0.015 C 
BRANCH   9  15
ATOM     15  C7  UNL     1      15.889  57.138   2.368  0.00  0.00    +0.108 C 
ATOM     16  C8  UNL     1      15.867  55.594   2.356  0.00  0.00    +0.024 C 
ATOM     17  C9  UNL     1      14.455  54.987   2.277  0.00  0.00    +0.002 C 
ATOM     18  C10 UNL     1      13.850  54.743   3.670  0.00  0.00    +0.000 C 
ATOM     19  C11 UNL     1      13.372  56.021   4.370  0.00  0.00    +0.000 C 
ATOM     20  C12 UNL     1      14.477  57.071   4.560  0.00  0.00    +0.002 C 
ATOM     21  C13 UNL     1      14.809  57.812   3.250  0.00  0.00    +0.024 C 
ENDBRANCH   9  15
ENDBRANCH   4   7
BRANCH   1  23
ATOM     22  C1  UNL     1      24.129  62.354   0.298  0.00  0.00    +0.253 C 
ATOM     23  O1  UNL     1      22.740  62.614   0.478  0.00  0.00    -0.468 OA
ENDBRANCH   1  23
BRANCH   6  24
ATOM     24  O3  UNL     1      21.690  60.647  -1.111  0.00  0.00    -0.472 OA
BRANCH  24  25
ATOM     25  C20 UNL     1      20.815  60.583  -2.239  0.00  0.00    +0.206 C 
BRANCH  25  26
ATOM     26  C21 UNL     1      20.465  59.128  -2.583  0.00  0.00    +0.051 C 
BRANCH  26  27
ATOM     27  C22 UNL     1      20.001  59.007  -4.038  0.00  0.00    +0.051 C 
BRANCH  27  28
ATOM     28  C23 UNL     1      19.486  60.350  -4.567  0.00  0.00    +0.206 C 
BRANCH  28  29
ATOM     29  O4  UNL     1      18.900  60.186  -5.859  0.00  0.00    -0.475 OA
BRANCH  29  30
ATOM     30  C24 UNL     1      19.566  59.695  -6.995  0.00  0.00    +0.139 A 
ATOM     31  C25 UNL     1      20.718  60.305  -7.527  0.00  0.00    +0.037 A 
ATOM     32  C26 UNL     1      21.341  59.774  -8.661  0.00  0.00    +0.006 A 
ATOM     33  C27 UNL     1      20.830  58.622  -9.283  0.00  0.00    +0.040 A 
ATOM     34  C29 UNL     1      19.683  58.013  -8.746  0.00  0.00    +0.006 A 
ATOM     35  C30 UNL     1      19.061  58.547  -7.613  0.00  0.00    +0.037 A 
BRANCH  33  36
ATOM     36  C28 UNL     1      21.493  58.059 -10.485  0.00  0.00    +0.208 A 
ATOM     37  N3  UNL     1      22.548  58.610 -11.126  0.00  0.00    -0.106 NA
ATOM     38  N4  UNL     1      22.815  57.800 -12.138  0.00  0.00    -0.021 NA
ATOM     39  N5  UNL     1      21.968  56.786 -12.128  0.00  0.00    -0.021 NA
ATOM     40  N6  UNL     1      21.132  56.918 -11.112  0.00  0.00    -0.106 NA
ENDBRANCH  33  36
ENDBRANCH  29  30
ENDBRANCH  28  29
ENDBRANCH  27  28
ENDBRANCH  26  27
ENDBRANCH  25  26
ENDBRANCH  24  25
ENDBRANCH   6  24
TORSDOF 11
ENDMDL
MODEL 4
REMARK VINA RESULT:      -7.7      3.867      4.714
REMARK  Name = ./data/4u7t_site_bc02/pdb/l0c0.pdb
REMARK  11 active torsions:
REMARK  status: ('A' for Active; 'I' for Inactive)
REMARK    1  A    between atoms: O1_2  and  C2_3
REMARK    2  A    between atoms: C5_6  and  C6_7
REMARK    3  A    between atoms: N2_9  and  C7_10
REMARK    4  A    between atoms: C19_23  and  O3_24
REMARK    5  A    between atoms: O3_24  and  C20_25
REMARK    6  A    between atoms: C20_25  and  C21_26
REMARK    7  A    between atoms: C21_26  and  C22_27
REMARK    8  A    between atoms: C22_27  and  C23_28
REMARK    9  A    between atoms: C23_28  and  O4_29
REMARK   10  A    between atoms: O4_29  and  C24_30
REMARK   11  A    between atoms: C27_33  and  C28_34
REMARK                            x       y       z     vdW  Elec       q    Type
REMARK                         _______ _______ _______ _____ _____    ______ ____
ROOT
ATOM      1  C2  UNL     1      21.967  61.928   0.285  0.00  0.00    +0.172 A 
ATOM      2  C3  UNL     1      21.795  62.331   1.622  0.00  0.00    +0.040 A 
ATOM      3  C4  UNL     1      21.077  61.536   2.519  0.00  0.00    +0.005 A 
ATOM      4  C5  UNL     1      20.511  60.320   2.102  0.00  0.00    +0.019 A 
ATOM      5  C18 UNL     1      20.666  59.935   0.757  0.00  0.00    +0.041 A 
ATOM      6  C19 UNL     1      21.408  60.718  -0.148  0.00  0.00    +0.172 A 
ENDROOT
BRANCH   4   7
ATOM      7  C6  UNL     1      19.778  59.409   3.030  0.00  0.00    +0.086 C 
ATOM      8  N1  UNL     1      18.779  58.700   2.607  0.00  0.00    -0.171 NA
ATOM      9  N2  UNL     1      18.282  57.904   3.636  0.00  0.00    -0.222 N 
ATOM     10  C14 UNL     1      18.957  58.107   4.718  0.00  0.00    +0.257 C 
ATOM     11  O2  UNL     1      18.689  57.455   5.922  0.00  0.00    -0.270 OA
ATOM     12  C15 UNL     1      20.053  59.113   4.497  0.00  0.00    +0.110 C 
ATOM     13  C16 UNL     1      19.830  60.337   5.399  0.00  0.00    +0.015 C 
ATOM     14  C17 UNL     1      21.420  58.443   4.722  0.00  0.00    +0.015 C 
BRANCH   9  15
ATOM     15  C7  UNL     1      17.169  56.962   3.454  0.00  0.00    +0.108 C 
ATOM     16  C8  UNL     1      16.403  57.321   2.162  0.00  0.00    +0.024 C 
ATOM     17  C9  UNL     1      15.437  56.224   1.679  0.00  0.00    +0.002 C 
ATOM     18  C10 UNL     1      16.116  55.238   0.714  0.00  0.00    +0.000 C 
ATOM     19  C11 UNL     1      17.060  54.246   1.403  0.00  0.00    +0.000 C 
ATOM     20  C12 UNL     1      18.191  54.918   2.195  0.00  0.00    +0.002 C 
ATOM     21  C13 UNL     1      17.698  55.508   3.530  0.00  0.00    +0.024 C 
ENDBRANCH   9  15
ENDBRANCH   4   7
BRANCH   1  23
ATOM     22  C1  UNL     1      22.248  63.951  -1.162  0.00  0.00    +0.253 C 
ATOM     23  O1  UNL     1      22.686  62.700  -0.641  0.00  0.00    -0.468 OA
ENDBRANCH   1  23
BRANCH   6  24
ATOM     24  O3  UNL     1      21.614  60.327  -1.484  0.00  0.00    -0.472 OA
BRANCH  24  25
ATOM     25  C20 UNL     1      21.321  61.123  -2.634  0.00  0.00    +0.206 C 
BRANCH  25  26
ATOM     26  C21 UNL     1      20.406  60.369  -3.609  0.00  0.00    +0.051 C 
BRANCH  26  27
ATOM     27  C22 UNL     1      19.229  61.248  -4.045  0.00  0.00    +0.051 C 
BRANCH  27  28
ATOM     28  C23 UNL     1      18.644  60.768  -5.377  0.00  0.00    +0.206 C 
BRANCH  28  29
ATOM     29  O4  UNL     1      19.084  59.440  -5.666  0.00  0.00    -0.475 OA
BRANCH  29  30
ATOM     30  C24 UNL     1      19.755  59.045  -6.836  0.00  0.00    +0.139 A 
ATOM     31  C25 UNL     1      19.976  57.695  -7.168  0.00  0.00    +0.037 A 
ATOM     32  C26 UNL     1      20.652  57.357  -8.345  0.00  0.00    +0.006 A 
ATOM     33  C27 UNL     1      21.115  58.359  -9.216  0.00  0.00    +0.040 A 
ATOM     34  C29 UNL     1      20.888  59.705  -8.882  0.00  0.00    +0.006 A 
ATOM     35  C30 UNL     1      20.214  60.041  -7.703  0.00  0.00    +0.037 A 
BRANCH  33  36
ATOM     36  C28 UNL     1      21.830  58.000 -10.465  0.00  0.00    +0.208 A 
ATOM     37  N3  UNL     1      22.440  58.876 -11.295  0.00  0.00    -0.106 NA
ATOM     38  N4  UNL     1      22.939  58.148 -12.281  0.00  0.00    -0.021 NA
ATOM     39  N5  UNL     1      22.658  56.873 -12.074  0.00  0.00    -0.021 NA
ATOM     40  N6  UNL     1      21.968  56.748 -10.953  0.00  0.00    -0.106 NA
ENDBRANCH  33  36
ENDBRANCH  29  30
ENDBRANCH  28  29
ENDBRANCH  27  28
ENDBRANCH  26  27
ENDBRANCH  25  26
ENDBRANCH  24  25
ENDBRANCH   6  24
TORSDOF 11
ENDMDL
