MODEL 1
REMARK VINA RESULT:      -6.5      0.000      0.000
REMARK  Name = ./data/4u7t_site_bc02/pdb/l0c0.pdb
REMARK  11 active torsions:
REMARK  status: ('A' for Active; 'I' for Inactive)
REMARK    1  A    between atoms: O1_2  and  C2_3
REMARK    2  A    between atoms: C5_6  and  C6_7
REMARK    3  A    between atoms: N2_9  and  C7_10
REMARK    4  A    between atoms: C19_23  and  O3_24
REMARK    5  A    between atoms: O3_24  and  C20_25
REMARK    6  A    between atoms: C20_25  and  C21_26
REMARK    7  A    between atoms: C21_26  and  C22_27
REMARK    8  A    between atoms: C22_27  and  C23_28
REMARK    9  A    between atoms: C23_28  and  O4_29
REMARK   10  A    between atoms: O4_29  and  C24_30
REMARK   11  A    between atoms: C27_33  and  C28_34
REMARK                            x       y       z     vdW  Elec       q    Type
REMARK                         _______ _______ _______ _____ _____    ______ ____
ROOT
ATOM      1  C2  UNL     1      20.004  64.990  -2.958  0.00  0.00    +0.172 A 
ATOM      2  C3  UNL     1      19.117  64.515  -3.941  0.00  0.00    +0.040 A 
ATOM      3  C4  UNL     1      19.053  63.153  -4.245  0.00  0.00    +0.005 A 
ATOM      4  C5  UNL     1      19.875  62.232  -3.575  0.00  0.00    +0.019 A 
ATOM      5  C18 UNL     1      20.778  62.718  -2.611  0.00  0.00    +0.041 A 
ATOM      6  C19 UNL     1      20.833  64.085  -2.281  0.00  0.00    +0.172 A 
ENDROOT
BRANCH   4   7
ATOM      7  C6  UNL     1      19.812  60.762  -3.825  0.00  0.00    +0.086 C 
ATOM      8  N1  UNL     1      19.281  60.298  -4.912  0.00  0.00    -0.171 NA
ATOM      9  N2  UNL     1      19.369  58.909  -4.939  0.00  0.00    -0.222 N 
ATOM     10  C14 UNL     1      19.952  58.481  -3.869  0.00  0.00    +0.257 C 
ATOM     11  O2  UNL     1      20.180  57.131  -3.608  0.00  0.00    -0.270 OA
ATOM     12  C15 UNL     1      20.348  59.622  -2.971  0.00  0.00    +0.110 C 
ATOM     13  C16 UNL     1      19.624  59.502  -1.621  0.00  0.00    +0.015 C 
ATOM     14  C17 UNL     1      21.880  59.656  -2.828  0.00  0.00    +0.015 C 
BRANCH   9  15
ATOM     15  C7  UNL     1      18.885  58.098  -6.064  0.00  0.00    +0.108 C 
ATOM     16  C8  UNL     1      17.974  58.963  -6.963  0.00  0.00    +0.024 C 
ATOM     17  C9  UNL     1      17.679  58.343  -8.340  0.00  0.00    +0.002 C 
ATOM     18  C10 UNL     1      18.712  58.762  -9.398  0.00  0.00    +0.000 C 
ATOM     19  C11 UNL     1      20.066  58.055  -9.258  0.00  0.00    +0.000 C 
ATOM     20  C12 UNL     1      20.737  58.273  -7.893  0.00  0.00    +0.002 C 
ATOM     21  C13 UNL     1      20.085  57.429  -6.781  0.00  0.00    +0.024 C 
ENDBRANCH   9  15
ENDBRANCH   4   7
BRANCH   1  23
ATOM     22  C1  UNL     1      19.805  67.421  -3.521  0.00  0.00    +0.253 C 
ATOM     23  O1  UNL     1      20.091  66.352  -2.625  0.00  0.00    -0.468 OA
ENDBRANCH   1  23
BRANCH   6  24
ATOM     24  O3  UNL     1      21.695  64.583  -1.286  0.00  0.00    -0.472 OA
BRANCH  24  25
ATOM     25  C20 UNL     1      21.974  63.944  -0.038  0.00  0.00    +0.206 C 
BRANCH  25  26
ATOM     26  C21 UNL     1      23.074  62.884  -0.195  0.00  0.00    +0.051 C 
BRANCH  26  27
ATOM     27  C22 UNL     1      23.516  62.351   1.172  0.00  0.00    +0.051 C 
BRANCH  27  28
ATOM     28  C23 UNL     1      22.492  62.697   2.258  0.00  0.00    +0.206 C 
BRANCH  28  29
ATOM     29  O4  UNL     1      22.342  61.607   3.169  0.00  0.00    -0.475 OA
BRANCH  29  30
ATOM     30  C24 UNL     1      21.195  60.805   3.291  0.00  0.00    +0.139 A 
ATOM     31  C25 UNL     1      20.711  60.351   4.533  0.00  0.00    +0.037 A 
ATOM     32  C26 UNL     1      19.565  59.552   4.596  0.00  0.00    +0.006 A 
ATOM     33  C27 UNL     1      18.876  59.196   3.424  0.00  0.00    +0.040 A 
ATOM     34  C29 UNL     1      19.359  59.656   2.187  0.00  0.00    +0.006 A 
ATOM     35  C30 UNL     1      20.508  60.452   2.125  0.00  0.00    +0.037 A 
BRANCH  33  36
ATOM     36  C28 UNL     1      17.658  58.351   3.493  0.00  0.00    +0.208 A 
ATOM     37  N3  UNL     1      17.127  57.837   4.625  0.00  0.00    -0.106 NA
ATOM     38  N4  UNL     1      16.065  57.147   4.241  0.00  0.00    -0.021 NA
ATOM     39  N5  UNL     1      15.936  57.228   2.928  0.00  0.00    -0.021 NA
ATOM     40  N6  UNL     1      16.912  57.970   2.433  0.00  0.00    -0.106 NA
ENDBRANCH  33  36
ENDBRANCH  29  30
ENDBRANCH  28  29
ENDBRANCH  27  28
ENDBRANCH  26  27
ENDBRANCH  25  26
ENDBRANCH  24  25
ENDBRANCH   6  24
TORSDOF 11
ENDMDL
MODEL 2
REMARK VINA RESULT:      -6.2      2.361      4.004
REMARK  Name = ./data/4u7t_site_bc02/pdb/l0c0.pdb
REMARK  11 active torsions:
REMARK  status: ('A' for Active; 'I' for Inactive)
REMARK    1  A    between atoms: O1_2  and  C2_3
REMARK    2  A    between atoms: C5_6  and  C6_7
REMARK    3  A    between atoms: N2_9  and  C7_10
REMARK    4  A    between atoms: C19_23  and  O3_24
REMARK    5  A    between atoms: O3_24  and  C20_25
REMARK    6  A    between atoms: C20_25  and  C21_26
REMARK    7  A    between atoms: C21_26  and  C22_27
REMARK    8  A    between atoms: C22_27  and  C23_28
REMARK    9  A    between atoms: C23_28  and  O4_29
REMARK   10  A    between atoms: O4_29  and  C24_30
REMARK   11  A    between atoms: C27_33  and  C28_34
REMARK                            x       y       z     vdW  Elec       q    Type
REMARK                         _______ _______ _______ _____ _____    ______ ____
ROOT
ATOM      1  C2  UNL     1      22.238  61.738   0.018  0.00  0.00    +0.172 A 
ATOM      2  C3  UNL     1      22.514  62.459  -1.159  0.00  0.00    +0.040 A 
ATOM      3  C4  UNL     1      21.880  62.131  -2.360  0.00  0.00    +0.005 A 
ATOM      4  C5  UNL     1      20.958  61.073  -2.417  0.00  0.00    +0.019 A 
ATOM      5  C18 UNL     1      20.707  60.340  -1.242  0.00  0.00    +0.041 A 
ATOM      6  C19 UNL     1      21.322  60.678  -0.021  0.00  0.00    +0.172 A 
ENDROOT
BRANCH   4   7
ATOM      7  C6  UNL     1      20.217  60.713  -3.661  0.00  0.00    +0.086 C 
ATOM      8  N1  UNL     1      20.119  59.477  -4.038  0.00  0.00    -0.171 NA
ATOM      9  N2  UNL     1      19.355  59.384  -5.198  0.00  0.00    -0.222 N 
ATOM     10  C14 UNL     1      18.968  60.559  -5.568  0.00  0.00    +0.257 C 
ATOM     11  O2  UNL     1      18.189  60.787  -6.702  0.00  0.00    -0.270 OA
ATOM     12  C15 UNL     1      19.456  61.619  -4.618  0.00  0.00    +0.110 C 
ATOM     13  C16 UNL     1      20.375  62.602  -5.359  0.00  0.00    +0.015 C 
ATOM     14  C17 UNL     1      18.251  62.308  -3.953  0.00  0.00    +0.015 C 
BRANCH   9  15
ATOM     15  C7  UNL     1      19.037  58.105  -5.847  0.00  0.00    +0.108 C 
ATOM     16  C8  UNL     1      17.807  58.289  -6.763  0.00  0.00    +0.024 C 
ATOM     17  C9  UNL     1      17.579  57.130  -7.749  0.00  0.00    +0.002 C 
ATOM     18  C10 UNL     1      18.304  57.355  -9.086  0.00  0.00    +0.000 C 
ATOM     19  C11 UNL     1      19.820  57.130  -9.015  0.00  0.00    +0.000 C 
ATOM     20  C12 UNL     1      20.529  58.024  -7.986  0.00  0.00    +0.002 C 
ATOM     21  C13 UNL     1      20.303  57.542  -6.540  0.00  0.00    +0.024 C 
ENDBRANCH   9  15
ENDBRANCH   4   7
BRANCH   1  23
ATOM     22  C1  UNL     1      24.226  62.392   1.391  0.00  0.00    +0.253 C 
ATOM     23  O1  UNL     1      22.853  62.044   1.242  0.00  0.00    -0.468 OA
ENDBRANCH   1  23
BRANCH   6  24
ATOM     24  O3  UNL     1      21.047  59.988   1.173  0.00  0.00    -0.472 OA
BRANCH  24  25
ATOM     25  C20 UNL     1      20.119  60.407   2.177  0.00  0.00    +0.206 C 
BRANCH  25  26
ATOM     26  C21 UNL     1      20.834  60.681   3.508  0.00  0.00    +0.051 C 
BRANCH  26  27
ATOM     27  C22 UNL     1      20.313  59.752   4.609  0.00  0.00    +0.051 C 
BRANCH  27  28
ATOM     28  C23 UNL     1      20.877  58.336   4.451  0.00  0.00    +0.206 C 
BRANCH  28  29
ATOM     29  O4  UNL     1      19.877  57.454   3.941  0.00  0.00    -0.475 OA
BRANCH  29  30
ATOM     30  C24 UNL     1      18.517  57.477   4.297  0.00  0.00    +0.139 A 
ATOM     31  C25 UNL     1      18.068  57.221   5.606  0.00  0.00    +0.037 A 
ATOM     32  C26 UNL     1      16.702  57.255   5.905  0.00  0.00    +0.006 A 
ATOM     33  C27 UNL     1      15.759  57.550   4.906  0.00  0.00    +0.040 A 
ATOM     34  C29 UNL     1      16.213  57.810   3.601  0.00  0.00    +0.006 A 
ATOM     35  C30 UNL     1      17.579  57.773   3.303  0.00  0.00    +0.037 A 
BRANCH  33  36
ATOM     36  C28 UNL     1      14.311  57.588   5.224  0.00  0.00    +0.208 A 
ATOM     37  N3  UNL     1      13.311  57.371   4.340  0.00  0.00    -0.106 NA
ATOM     38  N4  UNL     1      12.189  57.507   5.028  0.00  0.00    -0.021 NA
ATOM     39  N5  UNL     1      12.474  57.792   6.287  0.00  0.00    -0.021 NA
ATOM     40  N6  UNL     1      13.786  57.850   6.441  0.00  0.00    -0.106 NA
ENDBRANCH  33  36
ENDBRANCH  29  30
ENDBRANCH  28  29
ENDBRANCH  27  28
ENDBRANCH  26  27
ENDBRANCH  25  26
ENDBRANCH  24  25
ENDBRANCH   6  24
TORSDOF 11
ENDMDL
MODEL 3
REMARK VINA RESULT:      -6.2      1.906      2.686
REMARK  Name = ./data/4u7t_site_bc02/pdb/l0c0.pdb
REMARK  11 active torsions:
REMARK  status: ('A' for Active; 'I' for Inactive)
REMARK    1  A    between atoms: O1_2  and  C2_3
REMARK    2  A    between atoms: C5_6  and  C6_7
REMARK    3  A    between atoms: N2_9  and  C7_10
REMARK    4  A    between atoms: C19_23  and  O3_24
REMARK    5  A    between atoms: O3_24  and  C20_25
REMARK    6  A    between atoms: C20_25  and  C21_26
REMARK    7  A    between atoms: C21_26  and  C22_27
REMARK    8  A    between atoms: C22_27  and  C23_28
REMARK    9  A    between atoms: C23_28  and  O4_29
REMARK   10  A    between atoms: O4_29  and  C24_30
REMARK   11  A    between atoms: C27_33  and  C28_34
REMARK                            x       y       z     vdW  Elec       q    Type
REMARK                         _______ _______ _______ _____ _____    ______ ____
ROOT
ATOM      1  C2  UNL     1      18.621  64.268  -3.273  0.00  0.00    +0.172 A 
ATOM      2  C3  UNL     1      17.538  63.517  -3.767  0.00  0.00    +0.040 A 
ATOM      3  C4  UNL     1      17.756  62.406  -4.585  0.00  0.00    +0.005 A 
ATOM      4  C5  UNL     1      19.061  62.019  -4.933  0.00  0.00    +0.019 A 
ATOM      5  C18 UNL     1      20.138  62.790  -4.457  0.00  0.00    +0.041 A 
ATOM      6  C19 UNL     1      19.929  63.897  -3.612  0.00  0.00    +0.172 A 
ENDROOT
BRANCH   4   7
ATOM      7  C6  UNL     1      19.352  60.813  -5.762  0.00  0.00    +0.086 C 
ATOM      8  N1  UNL     1      19.304  60.872  -7.055  0.00  0.00    -0.171 NA
ATOM      9  N2  UNL     1      19.649  59.642  -7.609  0.00  0.00    -0.222 N 
ATOM     10  C14 UNL     1      19.912  58.793  -6.672  0.00  0.00    +0.257 C 
ATOM     11  O2  UNL     1      20.283  57.471  -6.918  0.00  0.00    -0.270 OA
ATOM     12  C15 UNL     1      19.774  59.421  -5.312  0.00  0.00    +0.110 C 
ATOM     13  C16 UNL     1      18.679  58.701  -4.511  0.00  0.00    +0.015 C 
ATOM     14  C17 UNL     1      21.140  59.415  -4.602  0.00  0.00    +0.015 C 
BRANCH   9  15
ATOM     15  C7  UNL     1      19.720  59.407  -9.058  0.00  0.00    +0.108 C 
ATOM     16  C8  UNL     1      20.377  60.627  -9.741  0.00  0.00    +0.024 C 
ATOM     17  C9  UNL     1      20.816  60.372 -11.193  0.00  0.00    +0.002 C 
ATOM     18  C10 UNL     1      22.260  59.852 -11.280  0.00  0.00    +0.000 C 
ATOM     19  C11 UNL     1      22.416  58.383 -10.868  0.00  0.00    +0.000 C 
ATOM     20  C12 UNL     1      21.939  58.089  -9.438  0.00  0.00    +0.002 C 
ATOM     21  C13 UNL     1      20.402  58.044  -9.333  0.00  0.00    +0.024 C 
ENDBRANCH   9  15
ENDBRANCH   4   7
BRANCH   1  23
ATOM     22  C1  UNL     1      18.445  66.737  -2.901  0.00  0.00    +0.253 C 
ATOM     23  O1  UNL     1      18.437  65.388  -2.446  0.00  0.00    -0.468 OA
ENDBRANCH   1  23
BRANCH   6  24
ATOM     24  O3  UNL     1      20.995  64.651  -3.087  0.00  0.00    -0.472 OA
BRANCH  24  25
ATOM     25  C20 UNL     1      21.488  64.568  -1.748  0.00  0.00    +0.206 C 
BRANCH  25  26
ATOM     26  C21 UNL     1      22.403  63.347  -1.573  0.00  0.00    +0.051 C 
BRANCH  26  27
ATOM     27  C22 UNL     1      21.578  62.069  -1.385  0.00  0.00    +0.051 C 
BRANCH  27  28
ATOM     28  C23 UNL     1      22.433  60.942  -0.797  0.00  0.00    +0.206 C 
BRANCH  28  29
ATOM     29  O4  UNL     1      21.696  59.718  -0.773  0.00  0.00    -0.475 OA
BRANCH  29  30
ATOM     30  C24 UNL     1      20.755  59.357   0.206  0.00  0.00    +0.139 A 
ATOM     31  C25 UNL     1      19.925  58.226   0.085  0.00  0.00    +0.037 A 
ATOM     32  C26 UNL     1      19.003  57.914   1.089  0.00  0.00    +0.006 A 
ATOM     33  C27 UNL     1      18.895  58.720   2.236  0.00  0.00    +0.040 A 
ATOM     34  C29 UNL     1      19.729  59.845   2.355  0.00  0.00    +0.006 A 
ATOM     35  C30 UNL     1      20.649  60.157   1.348  0.00  0.00    +0.037 A 
BRANCH  33  36
ATOM     36  C28 UNL     1      17.918  58.387   3.302  0.00  0.00    +0.208 A 
ATOM     37  N3  UNL     1      16.703  57.830   3.101  0.00  0.00    -0.106 NA
ATOM     38  N4  UNL     1      16.160  57.712   4.302  0.00  0.00    -0.021 NA
ATOM     39  N5  UNL     1      17.000  58.171   5.214  0.00  0.00    -0.021 NA
ATOM     40  N6  UNL     1      18.103  58.600   4.623  0.00  0.00    -0.106 NA
ENDBRANCH  33  36
ENDBRANCH  29  30
ENDBRANCH  28  29
ENDBRANCH  27  28
ENDBRANCH  26  27
ENDBRANCH  25  26
ENDBRANCH  24  25
ENDBRANCH   6  24
TORSDOF 11
ENDMDL
MODEL 4
REMARK VINA RESULT:      -4.6      1.873      3.071
REMARK  Name = ./data/4u7t_site_bc02/pdb/l0c0.pdb
REMARK  11 active torsions:
REMARK  status: ('A' for Active; 'I' for Inactive)
REMARK    1  A    between atoms: O1_2  and  C2_3
REMARK    2  A    between atoms: C5_6  and  C6_7
REMARK    3  A    between atoms: N2_9  and  C7_10
REMARK    4  A    between atoms: C19_23  and  O3_24
REMARK    5  A    between atoms: O3_24  and  C20_25
REMARK    6  A    between atoms: C20_25  and  C21_26
REMARK    7  A    between atoms: C21_26  and  C22_27
REMARK    8  A    between atoms: C22_27  and  C23_28
REMARK    9  A    between atoms: C23_28  and  O4_29
REMARK   10  A    between atoms: O4_29  and  C24_30
REMARK   11  A    between atoms: C27_33  and  C28_34
REMARK                            x       y       z     vdW  Elec       q    Type
REMARK                         _______ _______ _______ _____ _____    ______ ____
ROOT
ATOM      1  C2  UNL     1      17.534  64.772  -3.220  0.00  0.00    +0.172 A 
ATOM      2  C3  UNL     1      16.791  63.578  -3.173  0.00  0.00    +0.040 A 
ATOM      3  C4  UNL     1      17.247  62.429  -3.825  0.00  0.00    +0.005 A 
ATOM      4  C5  UNL     1      18.454  62.445  -4.542  0.00  0.00    +0.019 A 
ATOM      5  C18 UNL     1      19.180  63.650  -4.606  0.00  0.00    +0.041 A 
ATOM      6  C19 UNL     1      18.741  64.806  -3.932  0.00  0.00    +0.172 A 
ENDROOT
BRANCH   4   7
ATOM      7  C6  UNL     1      19.012  61.234  -5.213  0.00  0.00    +0.086 C 
ATOM      8  N1  UNL     1      18.737  60.982  -6.454  0.00  0.00    -0.171 NA
ATOM      9  N2  UNL     1      19.396  59.827  -6.870  0.00  0.00    -0.222 N 
ATOM     10  C14 UNL     1      20.087  59.337  -5.895  0.00  0.00    +0.257 C 
ATOM     11  O2  UNL     1      20.853  58.177  -6.007  0.00  0.00    -0.270 OA
ATOM     12  C15 UNL     1      19.961  60.182  -4.657  0.00  0.00    +0.110 C 
ATOM     13  C16 UNL     1      19.332  59.358  -3.523  0.00  0.00    +0.015 C 
ATOM     14  C17 UNL     1      21.338  60.761  -4.286  0.00  0.00    +0.015 C 
BRANCH   9  15
ATOM     15  C7  UNL     1      19.310  59.305  -8.240  0.00  0.00    +0.108 C 
ATOM     16  C8  UNL     1      20.284  60.088  -9.147  0.00  0.00    +0.024 C 
ATOM     17  C9  UNL     1      20.539  59.427 -10.513  0.00  0.00    +0.002 C 
ATOM     18  C10 UNL     1      21.734  58.461 -10.476  0.00  0.00    +0.000 C 
ATOM     19  C11 UNL     1      21.433  57.130  -9.774  0.00  0.00    +0.000 C 
ATOM     20  C12 UNL     1      20.966  57.291  -8.320  0.00  0.00    +0.002 C 
ATOM     21  C13 UNL     1      19.504  57.768  -8.227  0.00  0.00    +0.024 C 
ENDBRANCH   9  15
ENDBRANCH   4   7
BRANCH   1  23
ATOM     22  C1  UNL     1      17.904  67.114  -2.418  0.00  0.00    +0.253 C 
ATOM     23  O1  UNL     1      17.108  65.943  -2.574  0.00  0.00    -0.468 OA
ENDBRANCH   1  23
BRANCH   6  24
ATOM     24  O3  UNL     1      19.476  66.005  -3.946  0.00  0.00    -0.472 OA
BRANCH  24  25
ATOM     25  C20 UNL     1      20.552  66.327  -3.061  0.00  0.00    +0.206 C 
BRANCH  25  26
ATOM     26  C21 UNL     1      21.699  65.315  -3.197  0.00  0.00    +0.051 C 
BRANCH  26  27
ATOM     27  C22 UNL     1      21.471  64.105  -2.284  0.00  0.00    +0.051 C 
BRANCH  27  28
ATOM     28  C23 UNL     1      22.592  63.975  -1.249  0.00  0.00    +0.206 C 
BRANCH  28  29
ATOM     29  O4  UNL     1      22.748  62.612  -0.850  0.00  0.00    -0.475 OA
BRANCH  29  30
ATOM     30  C24 UNL     1      22.066  61.995   0.212  0.00  0.00    +0.139 A 
ATOM     31  C25 UNL     1      21.243  60.866   0.036  0.00  0.00    +0.037 A 
ATOM     32  C26 UNL     1      20.585  60.293   1.129  0.00  0.00    +0.006 A 
ATOM     33  C27 UNL     1      20.739  60.830   2.418  0.00  0.00    +0.040 A 
ATOM     34  C29 UNL     1      21.566  61.953   2.590  0.00  0.00    +0.006 A 
ATOM     35  C30 UNL     1      22.221  62.527   1.496  0.00  0.00    +0.037 A 
BRANCH  33  36
ATOM     36  C28 UNL     1      20.043  60.219   3.577  0.00  0.00    +0.208 A 
ATOM     37  N3  UNL     1      19.061  59.293   3.499  0.00  0.00    -0.106 NA
ATOM     38  N4  UNL     1      18.716  59.029   4.749  0.00  0.00    -0.021 NA
ATOM     39  N5  UNL     1      19.452  59.755   5.573  0.00  0.00    -0.021 NA
ATOM     40  N6  UNL     1      20.287  60.507   4.875  0.00  0.00    -0.106 NA
ENDBRANCH  33  36
ENDBRANCH  29  30
ENDBRANCH  28  29
ENDBRANCH  27  28
ENDBRANCH  26  27
ENDBRANCH  25  26
ENDBRANCH  24  25
ENDBRANCH   6  24
TORSDOF 11
ENDMDL
