MODEL 1
REMARK VINA RESULT:      -9.0      0.000      0.000
REMARK  Name = ./data/4u7t_site_bc02/pdb/l1c2.pdb
REMARK  11 active torsions:
REMARK  status: ('A' for Active; 'I' for Inactive)
REMARK    1  A    between atoms: O1_2  and  C2_3
REMARK    2  A    between atoms: C5_6  and  C6_7
REMARK    3  A    between atoms: N2_9  and  C7_10
REMARK    4  A    between atoms: C22_26  and  O3_27
REMARK    5  A    between atoms: O3_27  and  C23_28
REMARK    6  A    between atoms: C23_28  and  C24_29
REMARK    7  A    between atoms: C24_29  and  C25_30
REMARK    8  A    between atoms: C25_30  and  C26_31
REMARK    9  A    between atoms: C26_31  and  O4_32
REMARK   10  A    between atoms: O4_32  and  C27_33
REMARK   11  A    between atoms: C30_36  and  C31_37
REMARK                            x       y       z     vdW  Elec       q    Type
REMARK                         _______ _______ _______ _____ _____    ______ ____
ROOT
ATOM      1  C2  UNL     1      20.631  60.454   2.223  0.00  0.00    +0.172 A 
ATOM      2  C3  UNL     1      20.216  60.391   3.567  0.00  0.00    +0.040 A 
ATOM      3  C4  UNL     1      19.324  59.403   3.988  0.00  0.00    +0.005 A 
ATOM      4  C5  UNL     1      18.846  58.451   3.078  0.00  0.00    +0.018 A 
ATOM      5  C21 UNL     1      19.228  58.533   1.730  0.00  0.00    +0.041 A 
ATOM      6  C22 UNL     1      20.135  59.520   1.298  0.00  0.00    +0.172 A 
ENDROOT
BRANCH   4   7
ATOM      7  C6  UNL     1      17.933  57.373   3.502  0.00  0.00    +0.079 C 
ATOM      8  N1  UNL     1      18.270  56.666   4.541  0.00  0.00    -0.172 NA
ATOM      9  N2  UNL     1      17.401  55.748   5.177  0.00  0.00    -0.222 N 
ATOM     10  C14 UNL     1      16.283  55.375   4.586  0.00  0.00    +0.253 C 
ATOM     11  O2  UNL     1      15.395  54.493   5.205  0.00  0.00    -0.271 OA
ATOM     12  C15 UNL     1      15.962  55.879   3.200  0.00  0.00    +0.091 C 
ATOM     13  C16 UNL     1      16.580  54.937   2.147  0.00  0.00    +0.035 C 
ATOM     14  C17 UNL     1      16.627  55.536   0.768  0.00  0.00    -0.030 C 
ATOM     15  C18 UNL     1      16.564  56.856   0.547  0.00  0.00    -0.030 C 
ATOM     16  C19 UNL     1      16.198  57.841   1.624  0.00  0.00    +0.032 C 
ATOM     17  C20 UNL     1      16.485  57.318   3.047  0.00  0.00    +0.056 C 
BRANCH   9  18
ATOM     18  C7  UNL     1      17.777  55.319   6.540  0.00  0.00    +0.108 C 
ATOM     19  C8  UNL     1      17.081  56.182   7.616  0.00  0.00    +0.024 C 
ATOM     20  C9  UNL     1      17.374  55.727   9.056  0.00  0.00    +0.002 C 
ATOM     21  C10 UNL     1      18.786  56.131   9.515  0.00  0.00    +0.000 C 
ATOM     22  C11 UNL     1      19.886  55.098   9.202  0.00  0.00    +0.000 C 
ATOM     23  C12 UNL     1      19.755  54.350   7.861  0.00  0.00    +0.002 C 
ATOM     24  C13 UNL     1      19.317  55.240   6.683  0.00  0.00    +0.024 C 
ENDBRANCH   9  18
ENDBRANCH   4   7
BRANCH   1  26
ATOM     25  C1  UNL     1      21.813  62.650   2.436  0.00  0.00    +0.253 C 
ATOM     26  O1  UNL     1      21.544  61.420   1.768  0.00  0.00    -0.468 OA
ENDBRANCH   1  26
BRANCH   6  27
ATOM     27  O3  UNL     1      20.579  59.594  -0.034  0.00  0.00    -0.472 OA
BRANCH  27  28
ATOM     28  C23 UNL     1      20.987  58.477  -0.821  0.00  0.00    +0.206 C 
BRANCH  28  29
ATOM     29  C24 UNL     1      19.836  58.019  -1.718  0.00  0.00    +0.051 C 
BRANCH  29  30
ATOM     30  C25 UNL     1      20.304  57.842  -3.170  0.00  0.00    +0.051 C 
BRANCH  30  31
ATOM     31  C26 UNL     1      19.941  59.063  -4.024  0.00  0.00    +0.206 C 
BRANCH  31  32
ATOM     32  O4  UNL     1      20.765  60.179  -3.682  0.00  0.00    -0.475 OA
BRANCH  32  33
ATOM     33  C27 UNL     1      20.311  61.496  -3.487  0.00  0.00    +0.139 A 
ATOM     34  C28 UNL     1      20.973  62.420  -2.652  0.00  0.00    +0.037 A 
ATOM     35  C29 UNL     1      20.455  63.706  -2.471  0.00  0.00    +0.006 A 
ATOM     36  C30 UNL     1      19.279  64.099  -3.131  0.00  0.00    +0.040 A 
ATOM     37  C32 UNL     1      18.631  63.182  -3.973  0.00  0.00    +0.006 A 
ATOM     38  C33 UNL     1      19.143  61.894  -4.148  0.00  0.00    +0.037 A 
BRANCH  36  39
ATOM     39  C31 UNL     1      18.734  65.462  -2.943  0.00  0.00    +0.208 A 
ATOM     40  N3  UNL     1      19.418  66.508  -2.433  0.00  0.00    -0.106 NA
ATOM     41  N4  UNL     1      18.570  67.522  -2.427  0.00  0.00    -0.021 NA
ATOM     42  N5  UNL     1      17.407  67.131  -2.916  0.00  0.00    -0.021 NA
ATOM     43  N6  UNL     1      17.477  65.852  -3.246  0.00  0.00    -0.106 NA
ENDBRANCH  36  39
ENDBRANCH  32  33
ENDBRANCH  31  32
ENDBRANCH  30  31
ENDBRANCH  29  30
ENDBRANCH  28  29
ENDBRANCH  27  28
ENDBRANCH   6  27
TORSDOF 11
ENDMDL
MODEL 2
REMARK VINA RESULT:      -8.8      4.305     10.344
REMARK  Name = ./data/4u7t_site_bc02/pdb/l1c2.pdb
REMARK  11 active torsions:
REMARK  status: ('A' for Active; 'I' for Inactive)
REMARK    1  A    between atoms: O1_2  and  C2_3
REMARK    2  A    between atoms: C5_6  and  C6_7
REMARK    3  A    between atoms: N2_9  and  C7_10
REMARK    4  A    between atoms: C22_26  and  O3_27
REMARK    5  A    between atoms: O3_27  and  C23_28
REMARK    6  A    between atoms: C23_28  and  C24_29
REMARK    7  A    between atoms: C24_29  and  C25_30
REMARK    8  A    between atoms: C25_30  and  C26_31
REMARK    9  A    between atoms: C26_31  and  O4_32
REMARK   10  A    between atoms: O4_32  and  C27_33
REMARK   11  A    between atoms: C30_36  and  C31_37
REMARK                            x       y       z     vdW  Elec       q    Type
REMARK                         _______ _______ _______ _____ _____    ______ ____
ROOT
ATOM      1  C2  UNL     1      19.770  62.458  -3.527  0.00  0.00    +0.172 A 
ATOM      2  C3  UNL     1      19.024  61.872  -4.568  0.00  0.00    +0.040 A 
ATOM      3  C4  UNL     1      19.088  60.497  -4.798  0.00  0.00    +0.005 A 
ATOM      4  C5  UNL     1      19.884  59.682  -3.982  0.00  0.00    +0.018 A 
ATOM      5  C21 UNL     1      20.657  60.267  -2.968  0.00  0.00    +0.041 A 
ATOM      6  C22 UNL     1      20.592  61.652  -2.722  0.00  0.00    +0.172 A 
ENDROOT
BRANCH   4   7
ATOM      7  C6  UNL     1      19.942  58.221  -4.178  0.00  0.00    +0.079 C 
ATOM      8  N1  UNL     1      19.738  57.762  -5.379  0.00  0.00    -0.172 NA
ATOM      9  N2  UNL     1      19.967  56.416  -5.749  0.00  0.00    -0.222 N 
ATOM     10  C14 UNL     1      20.155  55.496  -4.824  0.00  0.00    +0.253 C 
ATOM     11  O2  UNL     1      20.411  54.166  -5.165  0.00  0.00    -0.271 OA
ATOM     12  C15 UNL     1      20.063  55.869  -3.364  0.00  0.00    +0.091 C 
ATOM     13  C16 UNL     1      18.604  55.744  -2.886  0.00  0.00    +0.035 C 
ATOM     14  C17 UNL     1      18.347  56.428  -1.571  0.00  0.00    -0.030 C 
ATOM     15  C18 UNL     1      19.142  57.394  -1.089  0.00  0.00    -0.030 C 
ATOM     16  C19 UNL     1      20.485  57.713  -1.688  0.00  0.00    +0.032 C 
ATOM     17  C20 UNL     1      20.601  57.297  -3.169  0.00  0.00    +0.056 C 
BRANCH   9  18
ATOM     18  C7  UNL     1      20.062  56.137  -7.198  0.00  0.00    +0.108 C 
ATOM     19  C8  UNL     1      21.463  55.608  -7.579  0.00  0.00    +0.024 C 
ATOM     20  C9  UNL     1      21.593  55.225  -9.064  0.00  0.00    +0.002 C 
ATOM     21  C10 UNL     1      21.712  56.461  -9.973  0.00  0.00    +0.000 C 
ATOM     22  C11 UNL     1      20.367  57.029 -10.468  0.00  0.00    +0.000 C 
ATOM     23  C12 UNL     1      19.201  56.989  -9.463  0.00  0.00    +0.002 C 
ATOM     24  C13 UNL     1      19.596  57.362  -8.022  0.00  0.00    +0.024 C 
ENDBRANCH   9  18
ENDBRANCH   4   7
BRANCH   1  26
ATOM     25  C1  UNL     1      18.515  64.549  -2.964  0.00  0.00    +0.253 C 
ATOM     26  O1  UNL     1      19.714  63.834  -3.252  0.00  0.00    -0.468 OA
ENDBRANCH   1  26
BRANCH   6  27
ATOM     27  O3  UNL     1      21.313  62.260  -1.680  0.00  0.00    -0.472 OA
BRANCH  27  28
ATOM     28  C23 UNL     1      21.775  61.589  -0.508  0.00  0.00    +0.206 C 
BRANCH  28  29
ATOM     29  C24 UNL     1      22.749  62.484   0.259  0.00  0.00    +0.051 C 
BRANCH  29  30
ATOM     30  C25 UNL     1      22.720  62.171   1.762  0.00  0.00    +0.051 C 
BRANCH  30  31
ATOM     31  C26 UNL     1      21.478  62.774   2.432  0.00  0.00    +0.206 C 
BRANCH  31  32
ATOM     32  O4  UNL     1      21.008  61.923   3.478  0.00  0.00    -0.475 OA
BRANCH  32  33
ATOM     33  C27 UNL     1      20.691  60.559   3.337  0.00  0.00    +0.139 A 
ATOM     34  C28 UNL     1      20.019  60.041   2.211  0.00  0.00    +0.037 A 
ATOM     35  C29 UNL     1      19.701  58.681   2.142  0.00  0.00    +0.006 A 
ATOM     36  C30 UNL     1      20.063  57.812   3.184  0.00  0.00    +0.040 A 
ATOM     37  C32 UNL     1      20.745  58.329   4.297  0.00  0.00    +0.006 A 
ATOM     38  C33 UNL     1      21.055  59.689   4.371  0.00  0.00    +0.037 A 
BRANCH  36  39
ATOM     39  C31 UNL     1      19.731  56.372   3.108  0.00  0.00    +0.208 A 
ATOM     40  N3  UNL     1      20.365  55.393   3.787  0.00  0.00    -0.106 NA
ATOM     41  N4  UNL     1      19.773  54.267   3.429  0.00  0.00    -0.021 NA
ATOM     42  N5  UNL     1      18.807  54.528   2.567  0.00  0.00    -0.021 NA
ATOM     43  N6  UNL     1      18.756  55.831   2.346  0.00  0.00    -0.106 NA
ENDBRANCH  36  39
ENDBRANCH  32  33
ENDBRANCH  31  32
ENDBRANCH  30  31
ENDBRANCH  29  30
ENDBRANCH  28  29
ENDBRANCH  27  28
ENDBRANCH   6  27
TORSDOF 11
ENDMDL
MODEL 3
REMARK VINA RESULT:      -8.8      6.825     10.621
REMARK  Name = ./data/4u7t_site_bc02/pdb/l1c2.pdb
REMARK  11 active torsions:
REMARK  status: ('A' for Active; 'I' for Inactive)
REMARK    1  A    between atoms: O1_2  and  C2_3
REMARK    2  A    between atoms: C5_6  and  C6_7
REMARK    3  A    between atoms: N2_9  and  C7_10
REMARK    4  A    between atoms: C22_26  and  O3_27
REMARK    5  A    between atoms: O3_27  and  C23_28
REMARK    6  A    between atoms: C23_28  and  C24_29
REMARK    7  A    between atoms: C24_29  and  C25_30
REMARK    8  A    between atoms: C25_30  and  C26_31
REMARK    9  A    between atoms: C26_31  and  O4_32
REMARK   10  A    between atoms: O4_32  and  C27_33
REMARK   11  A    between atoms: C30_36  and  C31_37
REMARK                            x       y       z     vdW  Elec       q    Type
REMARK                         _______ _______ _______ _____ _____    ______ ____
ROOT
ATOM      1  C2  UNL     1      18.951  61.650  -4.146  0.00  0.00    +0.172 A 
ATOM      2  C3  UNL     1      18.090  61.224  -5.177  0.00  0.00    +0.040 A 
ATOM      3  C4  UNL     1      18.388  60.082  -5.922  0.00  0.00    +0.005 A 
ATOM      4  C5  UNL     1      19.540  59.337  -5.640  0.00  0.00    +0.018 A 
ATOM      5  C21 UNL     1      20.419  59.779  -4.639  0.00  0.00    +0.041 A 
ATOM      6  C22 UNL     1      20.123  60.924  -3.876  0.00  0.00    +0.172 A 
ENDROOT
BRANCH   4   7
ATOM      7  C6  UNL     1      19.861  58.106  -6.386  0.00  0.00    +0.079 C 
ATOM      8  N1  UNL     1      19.915  58.181  -7.684  0.00  0.00    -0.172 NA
ATOM      9  N2  UNL     1      20.410  57.141  -8.507  0.00  0.00    -0.222 N 
ATOM     10  C14 UNL     1      20.603  55.936  -8.008  0.00  0.00    +0.253 C 
ATOM     11  O2  UNL     1      21.118  54.901  -8.792  0.00  0.00    -0.271 OA
ATOM     12  C15 UNL     1      20.236  55.650  -6.572  0.00  0.00    +0.091 C 
ATOM     13  C16 UNL     1      18.761  55.211  -6.490  0.00  0.00    +0.035 C 
ATOM     14  C17 UNL     1      18.205  55.253  -5.093  0.00  0.00    -0.030 C 
ATOM     15  C18 UNL     1      18.752  55.989  -4.116  0.00  0.00    -0.030 C 
ATOM     16  C19 UNL     1      20.101  56.642  -4.252  0.00  0.00    +0.032 C 
ATOM     17  C20 UNL     1      20.502  56.902  -5.719  0.00  0.00    +0.056 C 
BRANCH   9  18
ATOM     18  C7  UNL     1      20.764  57.509  -9.894  0.00  0.00    +0.108 C 
ATOM     19  C8  UNL     1      21.628  56.417 -10.564  0.00  0.00    +0.024 C 
ATOM     20  C9  UNL     1      21.959  56.712 -12.037  0.00  0.00    +0.002 C 
ATOM     21  C10 UNL     1      23.046  57.791 -12.183  0.00  0.00    +0.000 C 
ATOM     22  C11 UNL     1      22.515  59.237 -12.246  0.00  0.00    +0.000 C 
ATOM     23  C12 UNL     1      21.304  59.556 -11.348  0.00  0.00    +0.002 C 
ATOM     24  C13 UNL     1      21.378  58.929  -9.943  0.00  0.00    +0.024 C 
ENDBRANCH   9  18
ENDBRANCH   4   7
BRANCH   1  26
ATOM     25  C1  UNL     1      17.522  63.607  -3.520  0.00  0.00    +0.253 C 
ATOM     26  O1  UNL     1      18.673  62.781  -3.361  0.00  0.00    -0.468 OA
ENDBRANCH   1  26
BRANCH   6  27
ATOM     27  O3  UNL     1      20.956  61.361  -2.831  0.00  0.00    -0.472 OA
BRANCH  27  28
ATOM     28  C23 UNL     1      21.182  60.648  -1.616  0.00  0.00    +0.206 C 
BRANCH  28  29
ATOM     29  C24 UNL     1      21.708  61.599  -0.541  0.00  0.00    +0.051 C 
BRANCH  29  30
ATOM     30  C25 UNL     1      22.593  62.694  -1.155  0.00  0.00    +0.051 C 
BRANCH  30  31
ATOM     31  C26 UNL     1      21.943  64.076  -1.020  0.00  0.00    +0.206 C 
BRANCH  31  32
ATOM     32  O4  UNL     1      20.935  64.258  -2.017  0.00  0.00    -0.475 OA
BRANCH  32  33
ATOM     33  C27 UNL     1      20.699  65.449  -2.726  0.00  0.00    +0.139 A 
ATOM     34  C28 UNL     1      19.666  66.349  -2.393  0.00  0.00    +0.037 A 
ATOM     35  C29 UNL     1      19.459  67.502  -3.156  0.00  0.00    +0.006 A 
ATOM     36  C30 UNL     1      20.288  67.788  -4.252  0.00  0.00    +0.040 A 
ATOM     37  C32 UNL     1      21.327  66.898  -4.572  0.00  0.00    +0.006 A 
ATOM     38  C33 UNL     1      21.528  65.741  -3.816  0.00  0.00    +0.037 A 
BRANCH  36  39
ATOM     39  C31 UNL     1      20.073  69.011  -5.056  0.00  0.00    +0.208 A 
ATOM     40  N3  UNL     1      20.843  69.404  -6.093  0.00  0.00    -0.106 NA
ATOM     41  N4  UNL     1      20.318  70.539  -6.519  0.00  0.00    -0.021 NA
ATOM     42  N5  UNL     1      19.262  70.843  -5.786  0.00  0.00    -0.021 NA
ATOM     43  N6  UNL     1      19.083  69.911  -4.866  0.00  0.00    -0.106 NA
ENDBRANCH  36  39
ENDBRANCH  32  33
ENDBRANCH  31  32
ENDBRANCH  30  31
ENDBRANCH  29  30
ENDBRANCH  28  29
ENDBRANCH  27  28
ENDBRANCH   6  27
TORSDOF 11
ENDMDL
MODEL 4
REMARK VINA RESULT:      -8.6      4.208      5.569
REMARK  Name = ./data/4u7t_site_bc02/pdb/l1c2.pdb
REMARK  11 active torsions:
REMARK  status: ('A' for Active; 'I' for Inactive)
REMARK    1  A    between atoms: O1_2  and  C2_3
REMARK    2  A    between atoms: C5_6  and  C6_7
REMARK    3  A    between atoms: N2_9  and  C7_10
REMARK    4  A    between atoms: C22_26  and  O3_27
REMARK    5  A    between atoms: O3_27  and  C23_28
REMARK    6  A    between atoms: C23_28  and  C24_29
REMARK    7  A    between atoms: C24_29  and  C25_30
REMARK    8  A    between atoms: C25_30  and  C26_31
REMARK    9  A    between atoms: C26_31  and  O4_32
REMARK   10  A    between atoms: O4_32  and  C27_33
REMARK   11  A    between atoms: C30_36  and  C31_37
REMARK                            x       y       z     vdW  Elec       q    Type
REMARK                         _______ _______ _______ _____ _____    ______ ____
ROOT
ATOM      1  C2  UNL     1      21.017  61.094   1.910  0.00  0.00    +0.172 A 
ATOM      2  C3  UNL     1      20.922  61.043   3.315  0.00  0.00    +0.040 A 
ATOM      3  C4  UNL     1      20.385  59.921   3.949  0.00  0.00    +0.005 A 
ATOM      4  C5  UNL     1      19.949  58.825   3.192  0.00  0.00    +0.018 A 
ATOM      5  C21 UNL     1      20.007  58.888   1.791  0.00  0.00    +0.041 A 
ATOM      6  C22 UNL     1      20.556  60.010   1.144  0.00  0.00    +0.172 A 
ENDROOT
BRANCH   4   7
ATOM      7  C6  UNL     1      19.411  57.612   3.835  0.00  0.00    +0.079 C 
ATOM      8  N1  UNL     1      18.223  57.682   4.363  0.00  0.00    -0.172 NA
ATOM      9  N2  UNL     1      17.506  56.553   4.824  0.00  0.00    -0.222 N 
ATOM     10  C14 UNL     1      18.117  55.395   4.977  0.00  0.00    +0.253 C 
ATOM     11  O2  UNL     1      17.425  54.260   5.403  0.00  0.00    -0.271 OA
ATOM     12  C15 UNL     1      19.601  55.290   4.719  0.00  0.00    +0.091 C 
ATOM     13  C16 UNL     1      20.378  55.626   6.008  0.00  0.00    +0.035 C 
ATOM     14  C17 UNL     1      21.838  55.900   5.769  0.00  0.00    -0.030 C 
ATOM     15  C18 UNL     1      22.323  56.252   4.570  0.00  0.00    -0.030 C 
ATOM     16  C19 UNL     1      21.506  56.167   3.309  0.00  0.00    +0.032 C 
ATOM     17  C20 UNL     1      19.986  56.233   3.566  0.00  0.00    +0.056 C 
BRANCH   9  18
ATOM     18  C7  UNL     1      16.054  56.734   5.033  0.00  0.00    +0.108 C 
ATOM     19  C8  UNL     1      15.460  57.741   4.023  0.00  0.00    +0.024 C 
ATOM     20  C9  UNL     1      13.935  57.907   4.143  0.00  0.00    +0.002 C 
ATOM     21  C10 UNL     1      13.538  58.757   5.363  0.00  0.00    +0.000 C 
ATOM     22  C11 UNL     1      13.329  57.957   6.664  0.00  0.00    +0.000 C 
ATOM     23  C12 UNL     1      14.287  56.773   6.896  0.00  0.00    +0.002 C 
ATOM     24  C13 UNL     1      15.751  57.061   6.515  0.00  0.00    +0.024 C 
ENDBRANCH   9  18
ENDBRANCH   4   7
BRANCH   1  26
ATOM     25  C1  UNL     1      22.963  62.359   0.974  0.00  0.00    +0.253 C 
ATOM     26  O1  UNL     1      21.572  62.196   1.240  0.00  0.00    -0.468 OA
ENDBRANCH   1  26
BRANCH   6  27
ATOM     27  O3  UNL     1      20.678  60.080  -0.255  0.00  0.00    -0.472 OA
BRANCH  27  28
ATOM     28  C23 UNL     1      21.109  59.007  -1.091  0.00  0.00    +0.206 C 
BRANCH  28  29
ATOM     29  C24 UNL     1      19.899  58.308  -1.711  0.00  0.00    +0.051 C 
BRANCH  29  30
ATOM     30  C25 UNL     1      20.229  57.769  -3.111  0.00  0.00    +0.051 C 
BRANCH  30  31
ATOM     31  C26 UNL     1      19.807  58.760  -4.202  0.00  0.00    +0.206 C 
BRANCH  31  32
ATOM     32  O4  UNL     1      19.515  58.074  -5.420  0.00  0.00    -0.475 OA
BRANCH  32  33
ATOM     33  C27 UNL     1      19.873  58.513  -6.708  0.00  0.00    +0.139 A 
ATOM     34  C28 UNL     1      19.865  57.669  -7.836  0.00  0.00    +0.037 A 
ATOM     35  C29 UNL     1      20.263  58.155  -9.085  0.00  0.00    +0.006 A 
ATOM     36  C30 UNL     1      20.658  59.494  -9.235  0.00  0.00    +0.040 A 
ATOM     37  C32 UNL     1      20.650  60.337  -8.112  0.00  0.00    +0.006 A 
ATOM     38  C33 UNL     1      20.261  59.850  -6.862  0.00  0.00    +0.037 A 
BRANCH  36  39
ATOM     39  C31 UNL     1      21.074  60.010 -10.558  0.00  0.00    +0.208 A 
ATOM     40  N3  UNL     1      20.613  61.142 -11.130  0.00  0.00    -0.106 NA
ATOM     41  N4  UNL     1      21.224  61.228 -12.298  0.00  0.00    -0.021 NA
ATOM     42  N5  UNL     1      22.036  60.198 -12.451  0.00  0.00    -0.021 NA
ATOM     43  N6  UNL     1      21.965  59.420 -11.385  0.00  0.00    -0.106 NA
ENDBRANCH  36  39
ENDBRANCH  32  33
ENDBRANCH  31  32
ENDBRANCH  30  31
ENDBRANCH  29  30
ENDBRANCH  28  29
ENDBRANCH  27  28
ENDBRANCH   6  27
TORSDOF 11
ENDMDL
MODEL 5
REMARK VINA RESULT:      -8.5      1.736      3.309
REMARK  Name = ./data/4u7t_site_bc02/pdb/l1c2.pdb
REMARK  11 active torsions:
REMARK  status: ('A' for Active; 'I' for Inactive)
REMARK    1  A    between atoms: O1_2  and  C2_3
REMARK    2  A    between atoms: C5_6  and  C6_7
REMARK    3  A    between atoms: N2_9  and  C7_10
REMARK    4  A    between atoms: C22_26  and  O3_27
REMARK    5  A    between atoms: O3_27  and  C23_28
REMARK    6  A    between atoms: C23_28  and  C24_29
REMARK    7  A    between atoms: C24_29  and  C25_30
REMARK    8  A    between atoms: C25_30  and  C26_31
REMARK    9  A    between atoms: C26_31  and  O4_32
REMARK   10  A    between atoms: O4_32  and  C27_33
REMARK   11  A    between atoms: C30_36  and  C31_37
REMARK                            x       y       z     vdW  Elec       q    Type
REMARK                         _______ _______ _______ _____ _____    ______ ____
ROOT
ATOM      1  C2  UNL     1      20.724  60.524   1.250  0.00  0.00    +0.172 A 
ATOM      2  C3  UNL     1      20.691  60.664   2.652  0.00  0.00    +0.040 A 
ATOM      3  C4  UNL     1      20.208  59.630   3.455  0.00  0.00    +0.005 A 
ATOM      4  C5  UNL     1      19.768  58.433   2.875  0.00  0.00    +0.018 A 
ATOM      5  C21 UNL     1      19.765  58.305   1.478  0.00  0.00    +0.041 A 
ATOM      6  C22 UNL     1      20.258  59.338   0.659  0.00  0.00    +0.172 A 
ENDROOT
BRANCH   4   7
ATOM      7  C6  UNL     1      19.288  57.309   3.701  0.00  0.00    +0.079 C 
ATOM      8  N1  UNL     1      18.104  57.410   4.232  0.00  0.00    -0.172 NA
ATOM      9  N2  UNL     1      17.439  56.335   4.869  0.00  0.00    -0.222 N 
ATOM     10  C14 UNL     1      18.100  55.239   5.182  0.00  0.00    +0.253 C 
ATOM     11  O2  UNL     1      17.461  54.153   5.783  0.00  0.00    -0.271 OA
ATOM     12  C15 UNL     1      19.584  55.155   4.918  0.00  0.00    +0.091 C 
ATOM     13  C16 UNL     1      20.360  55.710   6.129  0.00  0.00    +0.035 C 
ATOM     14  C17 UNL     1      21.805  56.003   5.827  0.00  0.00    -0.030 C 
ATOM     15  C18 UNL     1      22.262  56.191   4.581  0.00  0.00    -0.030 C 
ATOM     16  C19 UNL     1      21.436  55.886   3.361  0.00  0.00    +0.032 C 
ATOM     17  C20 UNL     1      19.918  55.929   3.631  0.00  0.00    +0.056 C 
BRANCH   9  18
ATOM     18  C7  UNL     1      15.983  56.488   5.072  0.00  0.00    +0.108 C 
ATOM     19  C8  UNL     1      15.337  57.303   3.930  0.00  0.00    +0.024 C 
ATOM     20  C9  UNL     1      13.807  57.424   4.050  0.00  0.00    +0.002 C 
ATOM     21  C10 UNL     1      13.388  58.435   5.132  0.00  0.00    +0.000 C 
ATOM     22  C11 UNL     1      13.228  57.837   6.544  0.00  0.00    +0.000 C 
ATOM     23  C12 UNL     1      14.237  56.742   6.938  0.00  0.00    +0.002 C 
ATOM     24  C13 UNL     1      15.683  57.027   6.492  0.00  0.00    +0.024 C 
ENDBRANCH   9  18
ENDBRANCH   4   7
BRANCH   1  26
ATOM     25  C1  UNL     1      22.609  61.800   0.208  0.00  0.00    +0.253 C 
ATOM     26  O1  UNL     1      21.223  61.535   0.412  0.00  0.00    -0.468 OA
ENDBRANCH   1  26
BRANCH   6  27
ATOM     27  O3  UNL     1      20.319  59.219  -0.740  0.00  0.00    -0.472 OA
BRANCH  27  28
ATOM     28  C23 UNL     1      20.904  58.122  -1.440  0.00  0.00    +0.206 C 
BRANCH  28  29
ATOM     29  C24 UNL     1      19.897  57.535  -2.430  0.00  0.00    +0.051 C 
BRANCH  29  30
ATOM     30  C25 UNL     1      20.243  57.934  -3.872  0.00  0.00    +0.051 C 
BRANCH  30  31
ATOM     31  C26 UNL     1      19.584  59.265  -4.254  0.00  0.00    +0.206 C 
BRANCH  31  32
ATOM     32  O4  UNL     1      20.497  60.349  -4.075  0.00  0.00    -0.475 OA
BRANCH  32  33
ATOM     33  C27 UNL     1      20.136  61.679  -3.792  0.00  0.00    +0.139 A 
ATOM     34  C28 UNL     1      20.969  62.565  -3.078  0.00  0.00    +0.037 A 
ATOM     35  C29 UNL     1      20.542  63.866  -2.798  0.00  0.00    +0.006 A 
ATOM     36  C30 UNL     1      19.286  64.313  -3.238  0.00  0.00    +0.040 A 
ATOM     37  C32 UNL     1      18.465  63.433  -3.962  0.00  0.00    +0.006 A 
ATOM     38  C33 UNL     1      18.887  62.130  -4.235  0.00  0.00    +0.037 A 
BRANCH  36  39
ATOM     39  C31 UNL     1      18.836  65.691  -2.946  0.00  0.00    +0.208 A 
ATOM     40  N3  UNL     1      17.562  66.128  -3.036  0.00  0.00    -0.106 NA
ATOM     41  N4  UNL     1      17.597  67.407  -2.705  0.00  0.00    -0.021 NA
ATOM     42  N5  UNL     1      18.837  67.757  -2.415  0.00  0.00    -0.021 NA
ATOM     43  N6  UNL     1      19.633  66.711  -2.556  0.00  0.00    -0.106 NA
ENDBRANCH  36  39
ENDBRANCH  32  33
ENDBRANCH  31  32
ENDBRANCH  30  31
ENDBRANCH  29  30
ENDBRANCH  28  29
ENDBRANCH  27  28
ENDBRANCH   6  27
TORSDOF 11
ENDMDL
MODEL 6
REMARK VINA RESULT:      -7.9      4.532      7.546
REMARK  Name = ./data/4u7t_site_bc02/pdb/l1c2.pdb
REMARK  11 active torsions:
REMARK  status: ('A' for Active; 'I' for Inactive)
REMARK    1  A    between atoms: O1_2  and  C2_3
REMARK    2  A    between atoms: C5_6  and  C6_7
REMARK    3  A    between atoms: N2_9  and  C7_10
REMARK    4  A    between atoms: C22_26  and  O3_27
REMARK    5  A    between atoms: O3_27  and  C23_28
REMARK    6  A    between atoms: C23_28  and  C24_29
REMARK    7  A    between atoms: C24_29  and  C25_30
REMARK    8  A    between atoms: C25_30  and  C26_31
REMARK    9  A    between atoms: C26_31  and  O4_32
REMARK   10  A    between atoms: O4_32  and  C27_33
REMARK   11  A    between atoms: C30_36  and  C31_37
REMARK                            x       y       z     vdW  Elec       q    Type
REMARK                         _______ _______ _______ _____ _____    ______ ____
ROOT
ATOM      1  C2  UNL     1      20.537  60.108  -4.404  0.00  0.00    +0.172 A 
ATOM      2  C3  UNL     1      21.206  61.269  -3.968  0.00  0.00    +0.040 A 
ATOM      3  C4  UNL     1      21.417  61.495  -2.607  0.00  0.00    +0.005 A 
ATOM      4  C5  UNL     1      20.981  60.559  -1.660  0.00  0.00    +0.018 A 
ATOM      5  C21 UNL     1      20.281  59.420  -2.089  0.00  0.00    +0.041 A 
ATOM      6  C22 UNL     1      20.071  59.178  -3.460  0.00  0.00    +0.172 A 
ENDROOT
BRANCH   4   7
ATOM      7  C6  UNL     1      21.223  60.754  -0.219  0.00  0.00    +0.079 C 
ATOM      8  N1  UNL     1      20.439  60.134   0.616  0.00  0.00    -0.172 NA
ATOM      9  N2  UNL     1      20.681  60.065   2.009  0.00  0.00    -0.222 N 
ATOM     10  C14 UNL     1      21.584  60.848   2.565  0.00  0.00    +0.253 C 
ATOM     11  O2  UNL     1      21.861  60.777   3.932  0.00  0.00    -0.271 OA
ATOM     12  C15 UNL     1      22.316  61.866   1.724  0.00  0.00    +0.091 C 
ATOM     13  C16 UNL     1      21.513  63.181   1.685  0.00  0.00    +0.035 C 
ATOM     14  C17 UNL     1      21.964  64.121   0.599  0.00  0.00    -0.030 C 
ATOM     15  C18 UNL     1      22.655  63.712  -0.473  0.00  0.00    -0.030 C 
ATOM     16  C19 UNL     1      23.254  62.335  -0.575  0.00  0.00    +0.032 C 
ATOM     17  C20 UNL     1      22.537  61.296   0.313  0.00  0.00    +0.056 C 
BRANCH   9  18
ATOM     18  C7  UNL     1      19.939  59.028   2.756  0.00  0.00    +0.108 C 
ATOM     19  C8  UNL     1      18.991  58.235   1.830  0.00  0.00    +0.024 C 
ATOM     20  C9  UNL     1      18.252  57.088   2.541  0.00  0.00    +0.002 C 
ATOM     21  C10 UNL     1      17.104  57.600   3.429  0.00  0.00    +0.000 C 
ATOM     22  C11 UNL     1      17.512  57.936   4.877  0.00  0.00    +0.000 C 
ATOM     23  C12 UNL     1      18.901  58.576   5.062  0.00  0.00    +0.002 C 
ATOM     24  C13 UNL     1      19.253  59.637   4.003  0.00  0.00    +0.024 C 
ENDBRANCH   9  18
ENDBRANCH   4   7
BRANCH   1  26
ATOM     25  C1  UNL     1      20.702  60.708  -6.829  0.00  0.00    +0.253 C 
ATOM     26  O1  UNL     1      20.326  59.836  -5.766  0.00  0.00    -0.468 OA
ENDBRANCH   1  26
BRANCH   6  27
ATOM     27  O3  UNL     1      19.422  58.021  -3.923  0.00  0.00    -0.472 OA
BRANCH  27  28
ATOM     28  C23 UNL     1      19.687  56.697  -3.461  0.00  0.00    +0.206 C 
BRANCH  28  29
ATOM     29  C24 UNL     1      18.937  55.681  -4.323  0.00  0.00    +0.051 C 
BRANCH  29  30
ATOM     30  C25 UNL     1      19.886  54.595  -4.850  0.00  0.00    +0.051 C 
BRANCH  30  31
ATOM     31  C26 UNL     1      20.709  55.105  -6.039  0.00  0.00    +0.206 C 
BRANCH  31  32
ATOM     32  O4  UNL     1      19.853  55.613  -7.063  0.00  0.00    -0.475 OA
BRANCH  32  33
ATOM     33  C27 UNL     1      20.201  56.609  -7.994  0.00  0.00    +0.139 A 
ATOM     34  C28 UNL     1      21.497  56.735  -8.534  0.00  0.00    +0.037 A 
ATOM     35  C29 UNL     1      21.791  57.766  -9.431  0.00  0.00    +0.006 A 
ATOM     36  C30 UNL     1      20.796  58.678  -9.819  0.00  0.00    +0.040 A 
ATOM     37  C32 UNL     1      19.502  58.540  -9.291  0.00  0.00    +0.006 A 
ATOM     38  C33 UNL     1      19.210  57.516  -8.388  0.00  0.00    +0.037 A 
BRANCH  36  39
ATOM     39  C31 UNL     1      21.107  59.765 -10.772  0.00  0.00    +0.208 A 
ATOM     40  N3  UNL     1      21.901  59.644 -11.857  0.00  0.00    -0.106 NA
ATOM     41  N4  UNL     1      21.922  60.839 -12.422  0.00  0.00    -0.021 NA
ATOM     42  N5  UNL     1      21.170  61.672 -11.726  0.00  0.00    -0.021 NA
ATOM     43  N6  UNL     1      20.649  61.034 -10.692  0.00  0.00    -0.106 NA
ENDBRANCH  36  39
ENDBRANCH  32  33
ENDBRANCH  31  32
ENDBRANCH  30  31
ENDBRANCH  29  30
ENDBRANCH  28  29
ENDBRANCH  27  28
ENDBRANCH   6  27
TORSDOF 11
ENDMDL
MODEL 7
REMARK VINA RESULT:      -7.7      4.655     11.278
REMARK  Name = ./data/4u7t_site_bc02/pdb/l1c2.pdb
REMARK  11 active torsions:
REMARK  status: ('A' for Active; 'I' for Inactive)
REMARK    1  A    between atoms: O1_2  and  C2_3
REMARK    2  A    between atoms: C5_6  and  C6_7
REMARK    3  A    between atoms: N2_9  and  C7_10
REMARK    4  A    between atoms: C22_26  and  O3_27
REMARK    5  A    between atoms: O3_27  and  C23_28
REMARK    6  A    between atoms: C23_28  and  C24_29
REMARK    7  A    between atoms: C24_29  and  C25_30
REMARK    8  A    between atoms: C25_30  and  C26_31
REMARK    9  A    between atoms: C26_31  and  O4_32
REMARK   10  A    between atoms: O4_32  and  C27_33
REMARK   11  A    between atoms: C30_36  and  C31_37
REMARK                            x       y       z     vdW  Elec       q    Type
REMARK                         _______ _______ _______ _____ _____    ______ ____
ROOT
ATOM      1  C2  UNL     1      20.319  59.185  -2.663  0.00  0.00    +0.172 A 
ATOM      2  C3  UNL     1      20.485  59.818  -3.911  0.00  0.00    +0.040 A 
ATOM      3  C4  UNL     1      20.350  59.093  -5.096  0.00  0.00    +0.005 A 
ATOM      4  C5  UNL     1      20.030  57.730  -5.056  0.00  0.00    +0.018 A 
ATOM      5  C21 UNL     1      19.901  57.088  -3.815  0.00  0.00    +0.041 A 
ATOM      6  C22 UNL     1      20.026  57.812  -2.614  0.00  0.00    +0.172 A 
ENDROOT
BRANCH   4   7
ATOM      7  C6  UNL     1      19.845  56.947  -6.292  0.00  0.00    +0.079 C 
ATOM      8  N1  UNL     1      19.881  57.586  -7.426  0.00  0.00    -0.172 NA
ATOM      9  N2  UNL     1      19.925  56.942  -8.685  0.00  0.00    -0.222 N 
ATOM     10  C14 UNL     1      19.672  55.652  -8.779  0.00  0.00    +0.253 C 
ATOM     11  O2  UNL     1      19.737  54.988 -10.006  0.00  0.00    -0.271 OA
ATOM     12  C15 UNL     1      19.271  54.874  -7.549  0.00  0.00    +0.091 C 
ATOM     13  C16 UNL     1      17.742  54.941  -7.367  0.00  0.00    +0.035 C 
ATOM     14  C17 UNL     1      17.286  54.513  -5.998  0.00  0.00    -0.030 C 
ATOM     15  C18 UNL     1      18.100  54.503  -4.933  0.00  0.00    -0.030 C 
ATOM     16  C19 UNL     1      19.590  54.679  -5.050  0.00  0.00    +0.032 C 
ATOM     17  C20 UNL     1      20.012  55.438  -6.325  0.00  0.00    +0.056 C 
BRANCH   9  18
ATOM     18  C7  UNL     1      20.347  57.770  -9.835  0.00  0.00    +0.108 C 
ATOM     19  C8  UNL     1      21.607  57.191 -10.515  0.00  0.00    +0.024 C 
ATOM     20  C9  UNL     1      22.043  57.969 -11.769  0.00  0.00    +0.002 C 
ATOM     21  C10 UNL     1      22.733  59.298 -11.416  0.00  0.00    +0.000 C 
ATOM     22  C11 UNL     1      21.779  60.501 -11.273  0.00  0.00    +0.000 C 
ATOM     23  C12 UNL     1      20.410  60.211 -10.630  0.00  0.00    +0.002 C 
ATOM     24  C13 UNL     1      20.469  59.257  -9.422  0.00  0.00    +0.024 C 
ENDBRANCH   9  18
ENDBRANCH   4   7
BRANCH   1  26
ATOM     25  C1  UNL     1      21.236  61.044  -1.260  0.00  0.00    +0.253 C 
ATOM     26  O1  UNL     1      20.426  59.887  -1.451  0.00  0.00    -0.468 OA
ENDBRANCH   1  26
BRANCH   6  27
ATOM     27  O3  UNL     1      19.849  57.210  -1.356  0.00  0.00    -0.472 OA
BRANCH  27  28
ATOM     28  C23 UNL     1      18.586  56.876  -0.783  0.00  0.00    +0.206 C 
BRANCH  28  29
ATOM     29  C24 UNL     1      18.043  55.596  -1.417  0.00  0.00    +0.051 C 
BRANCH  29  30
ATOM     30  C25 UNL     1      17.889  54.483  -0.370  0.00  0.00    +0.051 C 
BRANCH  30  31
ATOM     31  C26 UNL     1      16.460  54.434   0.184  0.00  0.00    +0.206 C 
BRANCH  31  32
ATOM     32  O4  UNL     1      16.445  54.778   1.571  0.00  0.00    -0.475 OA
BRANCH  32  33
ATOM     33  C27 UNL     1      17.099  55.885   2.141  0.00  0.00    +0.139 A 
ATOM     34  C28 UNL     1      16.608  57.202   2.040  0.00  0.00    +0.037 A 
ATOM     35  C29 UNL     1      17.320  58.267   2.600  0.00  0.00    +0.006 A 
ATOM     36  C30 UNL     1      18.524  58.036   3.284  0.00  0.00    +0.040 A 
ATOM     37  C32 UNL     1      19.004  56.721   3.396  0.00  0.00    +0.006 A 
ATOM     38  C33 UNL     1      18.297  55.658   2.829  0.00  0.00    +0.037 A 
BRANCH  36  39
ATOM     39  C31 UNL     1      19.275  59.163   3.881  0.00  0.00    +0.208 A 
ATOM     40  N3  UNL     1      19.908  60.130   3.184  0.00  0.00    -0.106 NA
ATOM     41  N4  UNL     1      20.456  60.923   4.088  0.00  0.00    -0.021 NA
ATOM     42  N5  UNL     1      20.175  60.477   5.299  0.00  0.00    -0.021 NA
ATOM     43  N6  UNL     1      19.442  59.381   5.204  0.00  0.00    -0.106 NA
ENDBRANCH  36  39
ENDBRANCH  32  33
ENDBRANCH  31  32
ENDBRANCH  30  31
ENDBRANCH  29  30
ENDBRANCH  28  29
ENDBRANCH  27  28
ENDBRANCH   6  27
TORSDOF 11
ENDMDL
MODEL 8
REMARK VINA RESULT:      -7.1      4.048      8.695
REMARK  Name = ./data/4u7t_site_bc02/pdb/l1c2.pdb
REMARK  11 active torsions:
REMARK  status: ('A' for Active; 'I' for Inactive)
REMARK    1  A    between atoms: O1_2  and  C2_3
REMARK    2  A    between atoms: C5_6  and  C6_7
REMARK    3  A    between atoms: N2_9  and  C7_10
REMARK    4  A    between atoms: C22_26  and  O3_27
REMARK    5  A    between atoms: O3_27  and  C23_28
REMARK    6  A    between atoms: C23_28  and  C24_29
REMARK    7  A    between atoms: C24_29  and  C25_30
REMARK    8  A    between atoms: C25_30  and  C26_31
REMARK    9  A    between atoms: C26_31  and  O4_32
REMARK   10  A    between atoms: O4_32  and  C27_33
REMARK   11  A    between atoms: C30_36  and  C31_37
REMARK                            x       y       z     vdW  Elec       q    Type
REMARK                         _______ _______ _______ _____ _____    ______ ____
ROOT
ATOM      1  C2  UNL     1      20.632  62.199  -3.945  0.00  0.00    +0.172 A 
ATOM      2  C3  UNL     1      19.936  61.802  -5.104  0.00  0.00    +0.040 A 
ATOM      3  C4  UNL     1      19.591  60.464  -5.300  0.00  0.00    +0.005 A 
ATOM      4  C5  UNL     1      19.919  59.503  -4.335  0.00  0.00    +0.018 A 
ATOM      5  C21 UNL     1      20.645  59.888  -3.197  0.00  0.00    +0.041 A 
ATOM      6  C22 UNL     1      20.989  61.237  -2.986  0.00  0.00    +0.172 A 
ENDROOT
BRANCH   4   7
ATOM      7  C6  UNL     1      19.535  58.088  -4.497  0.00  0.00    +0.079 C 
ATOM      8  N1  UNL     1      19.464  57.352  -3.425  0.00  0.00    -0.172 NA
ATOM      9  N2  UNL     1      18.914  56.049  -3.408  0.00  0.00    -0.222 N 
ATOM     10  C14 UNL     1      18.677  55.414  -4.538  0.00  0.00    +0.253 C 
ATOM     11  O2  UNL     1      18.108  54.139  -4.548  0.00  0.00    -0.271 OA
ATOM     12  C15 UNL     1      19.053  56.054  -5.853  0.00  0.00    +0.091 C 
ATOM     13  C16 UNL     1      20.510  55.696  -6.208  0.00  0.00    +0.035 C 
ATOM     14  C17 UNL     1      21.088  56.563  -7.293  0.00  0.00    -0.030 C 
ATOM     15  C18 UNL     1      20.587  57.766  -7.604  0.00  0.00    -0.030 C 
ATOM     16  C19 UNL     1      19.266  58.255  -7.077  0.00  0.00    +0.032 C 
ATOM     17  C20 UNL     1      18.854  57.576  -5.754  0.00  0.00    +0.056 C 
BRANCH   9  18
ATOM     18  C7  UNL     1      18.555  55.502  -2.083  0.00  0.00    +0.108 C 
ATOM     19  C8  UNL     1      17.184  54.791  -2.118  0.00  0.00    +0.024 C 
ATOM     20  C9  UNL     1      16.797  54.132  -0.782  0.00  0.00    +0.002 C 
ATOM     21  C10 UNL     1      16.337  55.165   0.262  0.00  0.00    +0.000 C 
ATOM     22  C11 UNL     1      17.467  55.748   1.133  0.00  0.00    +0.000 C 
ATOM     23  C12 UNL     1      18.813  55.996   0.425  0.00  0.00    +0.002 C 
ATOM     24  C13 UNL     1      18.682  56.591  -0.989  0.00  0.00    +0.024 C 
ENDBRANCH   9  18
ENDBRANCH   4   7
BRANCH   1  26
ATOM     25  C1  UNL     1      20.039  64.610  -3.630  0.00  0.00    +0.253 C 
ATOM     26  O1  UNL     1      20.976  63.539  -3.704  0.00  0.00    -0.468 OA
ENDBRANCH   1  26
BRANCH   6  27
ATOM     27  O3  UNL     1      21.668  61.662  -1.831  0.00  0.00    -0.472 OA
BRANCH  27  28
ATOM     28  C23 UNL     1      21.502  61.096  -0.532  0.00  0.00    +0.206 C 
BRANCH  28  29
ATOM     29  C24 UNL     1      21.975  62.083   0.535  0.00  0.00    +0.051 C 
BRANCH  29  30
ATOM     30  C25 UNL     1      21.248  61.847   1.867  0.00  0.00    +0.051 C 
BRANCH  30  31
ATOM     31  C26 UNL     1      22.094  60.993   2.819  0.00  0.00    +0.206 C 
BRANCH  31  32
ATOM     32  O4  UNL     1      21.356  60.674   4.000  0.00  0.00    -0.475 OA
BRANCH  32  33
ATOM     33  C27 UNL     1      20.174  59.912   4.038  0.00  0.00    +0.139 A 
ATOM     34  C28 UNL     1      19.761  59.082   2.977  0.00  0.00    +0.037 A 
ATOM     35  C29 UNL     1      18.558  58.374   3.060  0.00  0.00    +0.006 A 
ATOM     36  C30 UNL     1      17.755  58.467   4.207  0.00  0.00    +0.040 A 
ATOM     37  C32 UNL     1      18.177  59.284   5.270  0.00  0.00    +0.006 A 
ATOM     38  C33 UNL     1      19.374  59.998   5.184  0.00  0.00    +0.037 A 
BRANCH  36  39
ATOM     39  C31 UNL     1      16.485  57.714   4.297  0.00  0.00    +0.208 A 
ATOM     40  N3  UNL     1      16.153  56.869   5.295  0.00  0.00    -0.106 NA
ATOM     41  N4  UNL     1      14.954  56.404   4.987  0.00  0.00    -0.021 NA
ATOM     42  N5  UNL     1      14.550  56.938   3.849  0.00  0.00    -0.021 NA
ATOM     43  N6  UNL     1      15.481  57.758   3.393  0.00  0.00    -0.106 NA
ENDBRANCH  36  39
ENDBRANCH  32  33
ENDBRANCH  31  32
ENDBRANCH  30  31
ENDBRANCH  29  30
ENDBRANCH  28  29
ENDBRANCH  27  28
ENDBRANCH   6  27
TORSDOF 11
ENDMDL
MODEL 9
REMARK VINA RESULT:      -6.6      3.978     11.991
REMARK  Name = ./data/4u7t_site_bc02/pdb/l1c2.pdb
REMARK  11 active torsions:
REMARK  status: ('A' for Active; 'I' for Inactive)
REMARK    1  A    between atoms: O1_2  and  C2_3
REMARK    2  A    between atoms: C5_6  and  C6_7
REMARK    3  A    between atoms: N2_9  and  C7_10
REMARK    4  A    between atoms: C22_26  and  O3_27
REMARK    5  A    between atoms: O3_27  and  C23_28
REMARK    6  A    between atoms: C23_28  and  C24_29
REMARK    7  A    between atoms: C24_29  and  C25_30
REMARK    8  A    between atoms: C25_30  and  C26_31
REMARK    9  A    between atoms: C26_31  and  O4_32
REMARK   10  A    between atoms: O4_32  and  C27_33
REMARK   11  A    between atoms: C30_36  and  C31_37
REMARK                            x       y       z     vdW  Elec       q    Type
REMARK                         _______ _______ _______ _____ _____    ______ ____
ROOT
ATOM      1  C2  UNL     1      20.164  57.902  -0.344  0.00  0.00    +0.172 A 
ATOM      2  C3  UNL     1      20.939  58.908  -0.953  0.00  0.00    +0.040 A 
ATOM      3  C4  UNL     1      20.856  59.131  -2.328  0.00  0.00    +0.005 A 
ATOM      4  C5  UNL     1      19.986  58.366  -3.116  0.00  0.00    +0.018 A 
ATOM      5  C21 UNL     1      19.241  57.337  -2.519  0.00  0.00    +0.041 A 
ATOM      6  C22 UNL     1      19.310  57.111  -1.131  0.00  0.00    +0.172 A 
ENDROOT
BRANCH   4   7
ATOM      7  C6  UNL     1      19.851  58.603  -4.565  0.00  0.00    +0.079 C 
ATOM      8  N1  UNL     1      20.159  57.628  -5.370  0.00  0.00    -0.172 NA
ATOM      9  N2  UNL     1      19.883  57.645  -6.758  0.00  0.00    -0.222 N 
ATOM     10  C14 UNL     1      19.528  58.768  -7.350  0.00  0.00    +0.253 C 
ATOM     11  O2  UNL     1      19.222  58.804  -8.712  0.00  0.00    -0.271 OA
ATOM     12  C15 UNL     1      19.476  60.052  -6.557  0.00  0.00    +0.091 C 
ATOM     13  C16 UNL     1      20.860  60.731  -6.579  0.00  0.00    +0.035 C 
ATOM     14  C17 UNL     1      21.010  61.807  -5.538  0.00  0.00    -0.030 C 
ATOM     15  C18 UNL     1      20.234  61.875  -4.447  0.00  0.00    -0.030 C 
ATOM     16  C19 UNL     1      18.993  61.041  -4.282  0.00  0.00    +0.032 C 
ATOM     17  C20 UNL     1      19.019  59.746  -5.121  0.00  0.00    +0.056 C 
BRANCH   9  18
ATOM     18  C7  UNL     1      19.935  56.344  -7.457  0.00  0.00    +0.108 C 
ATOM     19  C8  UNL     1      21.202  56.223  -8.332  0.00  0.00    +0.024 C 
ATOM     20  C9  UNL     1      21.348  54.854  -9.020  0.00  0.00    +0.002 C 
ATOM     21  C10 UNL     1      20.395  54.703 -10.218  0.00  0.00    +0.000 C 
ATOM     22  C11 UNL     1      19.007  54.130  -9.870  0.00  0.00    +0.000 C 
ATOM     23  C12 UNL     1      18.403  54.581  -8.526  0.00  0.00    +0.002 C 
ATOM     24  C13 UNL     1      18.610  56.074  -8.211  0.00  0.00    +0.024 C 
ENDBRANCH   9  18
ENDBRANCH   4   7
BRANCH   1  26
ATOM     25  C1  UNL     1      19.471  58.411   2.007  0.00  0.00    +0.253 C 
ATOM     26  O1  UNL     1      20.204  57.663   1.040  0.00  0.00    -0.468 OA
ENDBRANCH   1  26
BRANCH   6  27
ATOM     27  O3  UNL     1      18.536  56.124  -0.496  0.00  0.00    -0.472 OA
BRANCH  27  28
ATOM     28  C23 UNL     1      17.199  56.309  -0.035  0.00  0.00    +0.206 C 
BRANCH  28  29
ATOM     29  C24 UNL     1      16.856  55.254   1.016  0.00  0.00    +0.051 C 
BRANCH  29  30
ATOM     30  C25 UNL     1      15.456  55.490   1.601  0.00  0.00    +0.051 C 
BRANCH  30  31
ATOM     31  C26 UNL     1      15.399  55.100   3.083  0.00  0.00    +0.206 C 
BRANCH  31  32
ATOM     32  O4  UNL     1      15.977  56.124   3.896  0.00  0.00    -0.475 OA
BRANCH  32  33
ATOM     33  C27 UNL     1      16.620  55.917   5.129  0.00  0.00    +0.139 A 
ATOM     34  C28 UNL     1      16.253  54.891   6.023  0.00  0.00    +0.037 A 
ATOM     35  C29 UNL     1      16.908  54.755   7.251  0.00  0.00    +0.006 A 
ATOM     36  C30 UNL     1      17.950  55.627   7.602  0.00  0.00    +0.040 A 
ATOM     37  C32 UNL     1      18.324  56.640   6.703  0.00  0.00    +0.006 A 
ATOM     38  C33 UNL     1      17.664  56.782   5.480  0.00  0.00    +0.037 A 
BRANCH  36  39
ATOM     39  C31 UNL     1      18.647  55.480   8.898  0.00  0.00    +0.208 A 
ATOM     40  N3  UNL     1      18.907  56.487   9.759  0.00  0.00    -0.106 NA
ATOM     41  N4  UNL     1      19.546  55.935  10.775  0.00  0.00    -0.021 NA
ATOM     42  N5  UNL     1      19.677  54.638  10.564  0.00  0.00    -0.021 NA
ATOM     43  N6  UNL     1      19.128  54.323   9.403  0.00  0.00    -0.106 NA
ENDBRANCH  36  39
ENDBRANCH  32  33
ENDBRANCH  31  32
ENDBRANCH  30  31
ENDBRANCH  29  30
ENDBRANCH  28  29
ENDBRANCH  27  28
ENDBRANCH   6  27
TORSDOF 11
ENDMDL
