MODEL 1
REMARK VINA RESULT:      -6.5      0.000      0.000
REMARK  Name = ./data/4u7t_site_bc02/pdb/l0c0.pdb
REMARK  11 active torsions:
REMARK  status: ('A' for Active; 'I' for Inactive)
REMARK    1  A    between atoms: O1_2  and  C2_3
REMARK    2  A    between atoms: C5_6  and  C6_7
REMARK    3  A    between atoms: N2_9  and  C7_10
REMARK    4  A    between atoms: C19_23  and  O3_24
REMARK    5  A    between atoms: O3_24  and  C20_25
REMARK    6  A    between atoms: C20_25  and  C21_26
REMARK    7  A    between atoms: C21_26  and  C22_27
REMARK    8  A    between atoms: C22_27  and  C23_28
REMARK    9  A    between atoms: C23_28  and  O4_29
REMARK   10  A    between atoms: O4_29  and  C24_30
REMARK   11  A    between atoms: C27_33  and  C28_34
REMARK                            x       y       z     vdW  Elec       q    Type
REMARK                         _______ _______ _______ _____ _____    ______ ____
ROOT
ATOM      1  C2  UNL     1      36.542  98.791 -10.927  0.00  0.00    +0.172 A 
ATOM      2  C3  UNL     1      36.212 100.031 -10.350  0.00  0.00    +0.040 A 
ATOM      3  C4  UNL     1      34.922 100.272  -9.871  0.00  0.00    +0.005 A 
ATOM      4  C5  UNL     1      33.929  99.282  -9.959  0.00  0.00    +0.019 A 
ATOM      5  C18 UNL     1      34.260  98.054 -10.562  0.00  0.00    +0.041 A 
ATOM      6  C19 UNL     1      35.563  97.793 -11.025  0.00  0.00    +0.172 A 
ENDROOT
BRANCH   4   7
ATOM      7  C6  UNL     1      32.551  99.470  -9.419  0.00  0.00    +0.086 C 
ATOM      8  N1  UNL     1      32.192  98.899  -8.312  0.00  0.00    -0.171 NA
ATOM      9  N2  UNL     1      30.883  99.248  -7.990  0.00  0.00    -0.222 N 
ATOM     10  C14 UNL     1      30.401 100.037  -8.892  0.00  0.00    +0.257 C 
ATOM     11  O2  UNL     1      29.106 100.552  -8.847  0.00  0.00    -0.270 OA
ATOM     12  C15 UNL     1      31.415 100.322  -9.967  0.00  0.00    +0.110 C 
ATOM     13  C16 UNL     1      30.897  99.817 -11.322  0.00  0.00    +0.015 C 
ATOM     14  C17 UNL     1      31.749 101.824  -9.974  0.00  0.00    +0.015 C 
BRANCH   9  15
ATOM     15  C7  UNL     1      30.207  98.785  -6.771  0.00  0.00    +0.108 C 
ATOM     16  C8  UNL     1      28.793  98.280  -7.131  0.00  0.00    +0.024 C 
ATOM     17  C9  UNL     1      28.114  97.464  -6.017  0.00  0.00    +0.002 C 
ATOM     18  C10 UNL     1      28.416  95.961  -6.134  0.00  0.00    +0.000 C 
ATOM     19  C11 UNL     1      29.833  95.577  -5.692  0.00  0.00    +0.000 C 
ATOM     20  C12 UNL     1      30.941  96.300  -6.474  0.00  0.00    +0.002 C 
ATOM     21  C13 UNL     1      31.108  97.765  -6.030  0.00  0.00    +0.024 C 
ENDBRANCH   9  15
ENDBRANCH   4   7
BRANCH   1  23
ATOM     22  C1  UNL     1      39.003  99.233 -11.050  0.00  0.00    +0.253 C 
ATOM     23  O1  UNL     1      37.829  98.513 -11.415  0.00  0.00    -0.468 OA
ENDBRANCH   1  23
BRANCH   6  24
ATOM     24  O3  UNL     1      35.925  96.554 -11.587  0.00  0.00    -0.472 OA
BRANCH  24  25
ATOM     25  C20 UNL     1      35.129  95.367 -11.556  0.00  0.00    +0.206 C 
BRANCH  25  26
ATOM     26  C21 UNL     1      35.861  94.195 -12.224  0.00  0.00    +0.051 C 
BRANCH  26  27
ATOM     27  C22 UNL     1      36.300  93.160 -11.182  0.00  0.00    +0.051 C 
BRANCH  27  28
ATOM     28  C23 UNL     1      37.727  93.435 -10.697  0.00  0.00    +0.206 C 
BRANCH  28  29
ATOM     29  O4  UNL     1      37.738  93.677  -9.289  0.00  0.00    -0.475 OA
BRANCH  29  30
ATOM     30  C24 UNL     1      37.234  94.828  -8.660  0.00  0.00    +0.139 A 
ATOM     31  C25 UNL     1      35.955  94.877  -8.072  0.00  0.00    +0.037 A 
ATOM     32  C26 UNL     1      35.503  96.050  -7.459  0.00  0.00    +0.006 A 
ATOM     33  C27 UNL     1      36.318  97.194  -7.417  0.00  0.00    +0.040 A 
ATOM     34  C29 UNL     1      37.595  97.139  -8.000  0.00  0.00    +0.006 A 
ATOM     35  C30 UNL     1      38.045  95.966  -8.615  0.00  0.00    +0.037 A 
BRANCH  33  36
ATOM     36  C28 UNL     1      35.837  98.438  -6.765  0.00  0.00    +0.208 A 
ATOM     37  N3  UNL     1      34.620  98.603  -6.200  0.00  0.00    -0.106 NA
ATOM     38  N4  UNL     1      34.601  99.847  -5.749  0.00  0.00    -0.021 NA
ATOM     39  N5  UNL     1      35.755 100.433  -6.017  0.00  0.00    -0.021 NA
ATOM     40  N6  UNL     1      36.546  99.582  -6.650  0.00  0.00    -0.106 NA
ENDBRANCH  33  36
ENDBRANCH  29  30
ENDBRANCH  28  29
ENDBRANCH  27  28
ENDBRANCH  26  27
ENDBRANCH  25  26
ENDBRANCH  24  25
ENDBRANCH   6  24
TORSDOF 11
ENDMDL
MODEL 2
REMARK VINA RESULT:      -5.6      2.194      7.368
REMARK  Name = ./data/4u7t_site_bc02/pdb/l0c0.pdb
REMARK  11 active torsions:
REMARK  status: ('A' for Active; 'I' for Inactive)
REMARK    1  A    between atoms: O1_2  and  C2_3
REMARK    2  A    between atoms: C5_6  and  C6_7
REMARK    3  A    between atoms: N2_9  and  C7_10
REMARK    4  A    between atoms: C19_23  and  O3_24
REMARK    5  A    between atoms: O3_24  and  C20_25
REMARK    6  A    between atoms: C20_25  and  C21_26
REMARK    7  A    between atoms: C21_26  and  C22_27
REMARK    8  A    between atoms: C22_27  and  C23_28
REMARK    9  A    between atoms: C23_28  and  O4_29
REMARK   10  A    between atoms: O4_29  and  C24_30
REMARK   11  A    between atoms: C27_33  and  C28_34
REMARK                            x       y       z     vdW  Elec       q    Type
REMARK                         _______ _______ _______ _____ _____    ______ ____
ROOT
ATOM      1  C2  UNL     1      31.747  98.375  -7.558  0.00  0.00    +0.172 A 
ATOM      2  C3  UNL     1      32.550  97.391  -6.952  0.00  0.00    +0.040 A 
ATOM      3  C4  UNL     1      33.700  96.918  -7.588  0.00  0.00    +0.005 A 
ATOM      4  C5  UNL     1      34.075  97.414  -8.848  0.00  0.00    +0.019 A 
ATOM      5  C18 UNL     1      33.254  98.380  -9.459  0.00  0.00    +0.041 A 
ATOM      6  C19 UNL     1      32.107  98.880  -8.815  0.00  0.00    +0.172 A 
ENDROOT
BRANCH   4   7
ATOM      7  C6  UNL     1      35.319  96.980  -9.549  0.00  0.00    +0.086 C 
ATOM      8  N1  UNL     1      36.409  96.757  -8.884  0.00  0.00    -0.171 NA
ATOM      9  N2  UNL     1      37.419  96.329  -9.741  0.00  0.00    -0.222 N 
ATOM     10  C14 UNL     1      36.980  96.284 -10.955  0.00  0.00    +0.257 C 
ATOM     11  O2  UNL     1      37.766  95.895 -12.039  0.00  0.00    -0.270 OA
ATOM     12  C15 UNL     1      35.533  96.689 -11.027  0.00  0.00    +0.110 C 
ATOM     13  C16 UNL     1      35.383  97.941 -11.905  0.00  0.00    +0.015 C 
ATOM     14  C17 UNL     1      34.691  95.501 -11.527  0.00  0.00    +0.015 C 
BRANCH   9  15
ATOM     15  C7  UNL     1      38.763  95.963  -9.275  0.00  0.00    +0.108 C 
ATOM     16  C8  UNL     1      39.070  96.713  -7.960  0.00  0.00    +0.024 C 
ATOM     17  C9  UNL     1      40.290  96.169  -7.196  0.00  0.00    +0.002 C 
ATOM     18  C10 UNL     1      39.903  95.070  -6.194  0.00  0.00    +0.000 C 
ATOM     19  C11 UNL     1      39.582  93.719  -6.847  0.00  0.00    +0.000 C 
ATOM     20  C12 UNL     1      38.441  93.786  -7.874  0.00  0.00    +0.002 C 
ATOM     21  C13 UNL     1      38.890  94.420  -9.204  0.00  0.00    +0.024 C 
ENDBRANCH   9  15
ENDBRANCH   4   7
BRANCH   1  23
ATOM     22  C1  UNL     1      29.277  98.357  -7.150  0.00  0.00    +0.253 C 
ATOM     23  O1  UNL     1      30.588  98.876  -6.944  0.00  0.00    -0.468 OA
ENDBRANCH   1  23
BRANCH   6  24
ATOM     24  O3  UNL     1      31.300  99.879  -9.390  0.00  0.00    -0.472 OA
BRANCH  24  25
ATOM     25  C20 UNL     1      30.799  99.870 -10.728  0.00  0.00    +0.206 C 
BRANCH  25  26
ATOM     26  C21 UNL     1      30.567 101.299 -11.240  0.00  0.00    +0.051 C 
BRANCH  26  27
ATOM     27  C22 UNL     1      31.571 101.654 -12.342  0.00  0.00    +0.051 C 
BRANCH  27  28
ATOM     28  C23 UNL     1      32.039 103.107 -12.216  0.00  0.00    +0.206 C 
BRANCH  28  29
ATOM     29  O4  UNL     1      33.404 103.157 -11.796  0.00  0.00    -0.475 OA
BRANCH  29  30
ATOM     30  C24 UNL     1      33.927 102.513 -10.662  0.00  0.00    +0.139 A 
ATOM     31  C25 UNL     1      33.401 102.698  -9.370  0.00  0.00    +0.037 A 
ATOM     32  C26 UNL     1      33.962 102.032  -8.275  0.00  0.00    +0.006 A 
ATOM     33  C27 UNL     1      35.056 101.166  -8.449  0.00  0.00    +0.040 A 
ATOM     34  C29 UNL     1      35.574 100.980  -9.742  0.00  0.00    +0.006 A 
ATOM     35  C30 UNL     1      35.013 101.649 -10.835  0.00  0.00    +0.037 A 
BRANCH  33  36
ATOM     36  C28 UNL     1      35.649 100.459  -7.288  0.00  0.00    +0.208 A 
ATOM     37  N3  UNL     1      36.827  99.795  -7.296  0.00  0.00    -0.106 NA
ATOM     38  N4  UNL     1      36.974  99.311  -6.074  0.00  0.00    -0.021 NA
ATOM     39  N5  UNL     1      35.937  99.659  -5.332  0.00  0.00    -0.021 NA
ATOM     40  N6  UNL     1      35.094 100.374  -6.059  0.00  0.00    -0.106 NA
ENDBRANCH  33  36
ENDBRANCH  29  30
ENDBRANCH  28  29
ENDBRANCH  27  28
ENDBRANCH  26  27
ENDBRANCH  25  26
ENDBRANCH  24  25
ENDBRANCH   6  24
TORSDOF 11
ENDMDL
MODEL 3
REMARK VINA RESULT:      -5.3      2.495      7.804
REMARK  Name = ./data/4u7t_site_bc02/pdb/l0c0.pdb
REMARK  11 active torsions:
REMARK  status: ('A' for Active; 'I' for Inactive)
REMARK    1  A    between atoms: O1_2  and  C2_3
REMARK    2  A    between atoms: C5_6  and  C6_7
REMARK    3  A    between atoms: N2_9  and  C7_10
REMARK    4  A    between atoms: C19_23  and  O3_24
REMARK    5  A    between atoms: O3_24  and  C20_25
REMARK    6  A    between atoms: C20_25  and  C21_26
REMARK    7  A    between atoms: C21_26  and  C22_27
REMARK    8  A    between atoms: C22_27  and  C23_28
REMARK    9  A    between atoms: C23_28  and  O4_29
REMARK   10  A    between atoms: O4_29  and  C24_30
REMARK   11  A    between atoms: C27_33  and  C28_34
REMARK                            x       y       z     vdW  Elec       q    Type
REMARK                         _______ _______ _______ _____ _____    ______ ____
ROOT
ATOM      1  C2  UNL     1      31.613  97.444  -6.903  0.00  0.00    +0.172 A 
ATOM      2  C3  UNL     1      32.021  96.114  -7.112  0.00  0.00    +0.040 A 
ATOM      3  C4  UNL     1      33.175  95.829  -7.846  0.00  0.00    +0.005 A 
ATOM      4  C5  UNL     1      33.949  96.866  -8.391  0.00  0.00    +0.019 A 
ATOM      5  C18 UNL     1      33.522  98.194  -8.200  0.00  0.00    +0.041 A 
ATOM      6  C19 UNL     1      32.373  98.491  -7.441  0.00  0.00    +0.172 A 
ENDROOT
BRANCH   4   7
ATOM      7  C6  UNL     1      35.217  96.621  -9.140  0.00  0.00    +0.086 C 
ATOM      8  N1  UNL     1      36.329  96.416  -8.507  0.00  0.00    -0.171 NA
ATOM      9  N2  UNL     1      37.362  96.174  -9.409  0.00  0.00    -0.222 N 
ATOM     10  C14 UNL     1      36.914  96.230 -10.620  0.00  0.00    +0.257 C 
ATOM     11  O2  UNL     1      37.716  96.034 -11.743  0.00  0.00    -0.270 OA
ATOM     12  C15 UNL     1      35.437  96.518 -10.643  0.00  0.00    +0.110 C 
ATOM     13  C16 UNL     1      35.174  97.844 -11.372  0.00  0.00    +0.015 C 
ATOM     14  C17 UNL     1      34.691  95.328 -11.272  0.00  0.00    +0.015 C 
BRANCH   9  15
ATOM     15  C7  UNL     1      38.737  95.872  -8.990  0.00  0.00    +0.108 C 
ATOM     16  C8  UNL     1      39.021  96.558  -7.636  0.00  0.00    +0.024 C 
ATOM     17  C9  UNL     1      40.290  96.051  -6.929  0.00  0.00    +0.002 C 
ATOM     18  C10 UNL     1      39.999  94.867  -5.993  0.00  0.00    +0.000 C 
ATOM     19  C11 UNL     1      39.755  93.542  -6.725  0.00  0.00    +0.000 C 
ATOM     20  C12 UNL     1      38.590  93.595  -7.726  0.00  0.00    +0.002 C 
ATOM     21  C13 UNL     1      38.967  94.340  -9.020  0.00  0.00    +0.024 C 
ENDBRANCH   9  15
ENDBRANCH   4   7
BRANCH   1  23
ATOM     22  C1  UNL     1      29.364  96.881  -5.959  0.00  0.00    +0.253 C 
ATOM     23  O1  UNL     1      30.461  97.765  -6.167  0.00  0.00    -0.468 OA
ENDBRANCH   1  23
BRANCH   6  24
ATOM     24  O3  UNL     1      31.957  99.813  -7.199  0.00  0.00    -0.472 OA
BRANCH  24  25
ATOM     25  C20 UNL     1      30.852 100.462  -7.833  0.00  0.00    +0.206 C 
BRANCH  25  26
ATOM     26  C21 UNL     1      30.835 100.174  -9.341  0.00  0.00    +0.051 C 
BRANCH  26  27
ATOM     27  C22 UNL     1      30.203 101.338 -10.112  0.00  0.00    +0.051 C 
BRANCH  27  28
ATOM     28  C23 UNL     1      30.598 102.686  -9.500  0.00  0.00    +0.206 C 
BRANCH  28  29
ATOM     29  O4  UNL     1      31.753 103.212 -10.155  0.00  0.00    -0.475 OA
BRANCH  29  30
ATOM     30  C24 UNL     1      33.014 102.593 -10.198  0.00  0.00    +0.139 A 
ATOM     31  C25 UNL     1      33.630 102.203 -11.403  0.00  0.00    +0.037 A 
ATOM     32  C26 UNL     1      34.886 101.588 -11.388  0.00  0.00    +0.006 A 
ATOM     33  C27 UNL     1      35.553 101.355 -10.173  0.00  0.00    +0.040 A 
ATOM     34  C29 UNL     1      34.936 101.750  -8.973  0.00  0.00    +0.006 A 
ATOM     35  C30 UNL     1      33.679 102.363  -8.990  0.00  0.00    +0.037 A 
BRANCH  33  36
ATOM     36  C28 UNL     1      36.887 100.704 -10.158  0.00  0.00    +0.208 A 
ATOM     37  N3  UNL     1      37.842 100.859 -11.102  0.00  0.00    -0.106 NA
ATOM     38  N4  UNL     1      38.857 100.105 -10.712  0.00  0.00    -0.021 NA
ATOM     39  N5  UNL     1      38.552  99.509  -9.572  0.00  0.00    -0.021 NA
ATOM     40  N6  UNL     1      37.333  99.860  -9.201  0.00  0.00    -0.106 NA
ENDBRANCH  33  36
ENDBRANCH  29  30
ENDBRANCH  28  29
ENDBRANCH  27  28
ENDBRANCH  26  27
ENDBRANCH  25  26
ENDBRANCH  24  25
ENDBRANCH   6  24
TORSDOF 11
ENDMDL
MODEL 4
REMARK VINA RESULT:      -5.3      2.659      7.937
REMARK  Name = ./data/4u7t_site_bc02/pdb/l0c0.pdb
REMARK  11 active torsions:
REMARK  status: ('A' for Active; 'I' for Inactive)
REMARK    1  A    between atoms: O1_2  and  C2_3
REMARK    2  A    between atoms: C5_6  and  C6_7
REMARK    3  A    between atoms: N2_9  and  C7_10
REMARK    4  A    between atoms: C19_23  and  O3_24
REMARK    5  A    between atoms: O3_24  and  C20_25
REMARK    6  A    between atoms: C20_25  and  C21_26
REMARK    7  A    between atoms: C21_26  and  C22_27
REMARK    8  A    between atoms: C22_27  and  C23_28
REMARK    9  A    between atoms: C23_28  and  O4_29
REMARK   10  A    between atoms: O4_29  and  C24_30
REMARK   11  A    between atoms: C27_33  and  C28_34
REMARK                            x       y       z     vdW  Elec       q    Type
REMARK                         _______ _______ _______ _____ _____    ______ ____
ROOT
ATOM      1  C2  UNL     1      31.162  97.254  -6.904  0.00  0.00    +0.172 A 
ATOM      2  C3  UNL     1      32.046  96.170  -7.057  0.00  0.00    +0.040 A 
ATOM      3  C4  UNL     1      33.376  96.383  -7.427  0.00  0.00    +0.005 A 
ATOM      4  C5  UNL     1      33.855  97.683  -7.657  0.00  0.00    +0.019 A 
ATOM      5  C18 UNL     1      32.958  98.760  -7.527  0.00  0.00    +0.041 A 
ATOM      6  C19 UNL     1      31.623  98.557  -7.131  0.00  0.00    +0.172 A 
ENDROOT
BRANCH   4   7
ATOM      7  C6  UNL     1      35.278  97.971  -8.005  0.00  0.00    +0.086 C 
ATOM      8  N1  UNL     1      36.192  97.066  -7.850  0.00  0.00    -0.171 NA
ATOM      9  N2  UNL     1      37.427  97.548  -8.275  0.00  0.00    -0.222 N 
ATOM     10  C14 UNL     1      37.307  98.763  -8.697  0.00  0.00    +0.257 C 
ATOM     11  O2  UNL     1      38.376  99.515  -9.182  0.00  0.00    -0.270 OA
ATOM     12  C15 UNL     1      35.881  99.234  -8.602  0.00  0.00    +0.110 C 
ATOM     13  C16 UNL     1      35.790 100.439  -7.653  0.00  0.00    +0.015 C 
ATOM     14  C17 UNL     1      35.345  99.539 -10.013  0.00  0.00    +0.015 C 
BRANCH   9  15
ATOM     15  C7  UNL     1      38.653  96.738  -8.256  0.00  0.00    +0.108 C 
ATOM     16  C8  UNL     1      38.730  95.960  -6.924  0.00  0.00    +0.024 C 
ATOM     17  C9  UNL     1      39.774  94.830  -6.917  0.00  0.00    +0.002 C 
ATOM     18  C10 UNL     1      39.182  93.490  -7.385  0.00  0.00    +0.000 C 
ATOM     19  C11 UNL     1      38.955  93.408  -8.899  0.00  0.00    +0.000 C 
ATOM     20  C12 UNL     1      38.024  94.502  -9.444  0.00  0.00    +0.002 C 
ATOM     21  C13 UNL     1      38.726  95.871  -9.537  0.00  0.00    +0.024 C 
ENDBRANCH   9  15
ENDBRANCH   4   7
BRANCH   1  23
ATOM     22  C1  UNL     1      29.381  96.824  -5.198  0.00  0.00    +0.253 C 
ATOM     23  O1  UNL     1      29.820  97.076  -6.529  0.00  0.00    -0.468 OA
ENDBRANCH   1  23
BRANCH   6  24
ATOM     24  O3  UNL     1      30.724  99.625  -6.950  0.00  0.00    -0.472 OA
BRANCH  24  25
ATOM     25  C20 UNL     1      30.414 100.621  -7.928  0.00  0.00    +0.206 C 
BRANCH  25  26
ATOM     26  C21 UNL     1      29.569 100.031  -9.066  0.00  0.00    +0.051 C 
BRANCH  26  27
ATOM     27  C22 UNL     1      30.070 100.522 -10.428  0.00  0.00    +0.051 C 
BRANCH  27  28
ATOM     28  C23 UNL     1      29.964 102.046 -10.540  0.00  0.00    +0.206 C 
BRANCH  28  29
ATOM     29  O4  UNL     1      30.983 102.556 -11.402  0.00  0.00    -0.475 OA
BRANCH  29  30
ATOM     30  C24 UNL     1      32.321 102.780 -11.033  0.00  0.00    +0.139 A 
ATOM     31  C25 UNL     1      33.386 102.717 -11.951  0.00  0.00    +0.037 A 
ATOM     32  C26 UNL     1      34.699 102.948 -11.529  0.00  0.00    +0.006 A 
ATOM     33  C27 UNL     1      34.975 103.250 -10.184  0.00  0.00    +0.040 A 
ATOM     34  C29 UNL     1      33.908 103.316  -9.272  0.00  0.00    +0.006 A 
ATOM     35  C30 UNL     1      32.595 103.083  -9.696  0.00  0.00    +0.037 A 
BRANCH  33  36
ATOM     36  C28 UNL     1      36.368 103.496  -9.738  0.00  0.00    +0.208 A 
ATOM     37  N3  UNL     1      37.409 102.656  -9.930  0.00  0.00    -0.106 NA
ATOM     38  N4  UNL     1      38.455 103.248  -9.375  0.00  0.00    -0.021 NA
ATOM     39  N5  UNL     1      38.084 104.409  -8.862  0.00  0.00    -0.021 NA
ATOM     40  N6  UNL     1      36.791 104.592  -9.070  0.00  0.00    -0.106 NA
ENDBRANCH  33  36
ENDBRANCH  29  30
ENDBRANCH  28  29
ENDBRANCH  27  28
ENDBRANCH  26  27
ENDBRANCH  25  26
ENDBRANCH  24  25
ENDBRANCH   6  24
TORSDOF 11
ENDMDL
MODEL 5
REMARK VINA RESULT:      -4.3      3.280      8.178
REMARK  Name = ./data/4u7t_site_bc02/pdb/l0c0.pdb
REMARK  11 active torsions:
REMARK  status: ('A' for Active; 'I' for Inactive)
REMARK    1  A    between atoms: O1_2  and  C2_3
REMARK    2  A    between atoms: C5_6  and  C6_7
REMARK    3  A    between atoms: N2_9  and  C7_10
REMARK    4  A    between atoms: C19_23  and  O3_24
REMARK    5  A    between atoms: O3_24  and  C20_25
REMARK    6  A    between atoms: C20_25  and  C21_26
REMARK    7  A    between atoms: C21_26  and  C22_27
REMARK    8  A    between atoms: C22_27  and  C23_28
REMARK    9  A    between atoms: C23_28  and  O4_29
REMARK   10  A    between atoms: O4_29  and  C24_30
REMARK   11  A    between atoms: C27_33  and  C28_34
REMARK                            x       y       z     vdW  Elec       q    Type
REMARK                         _______ _______ _______ _____ _____    ______ ____
ROOT
ATOM      1  C2  UNL     1      29.610  97.461  -6.674  0.00  0.00    +0.172 A 
ATOM      2  C3  UNL     1      30.326  96.300  -6.329  0.00  0.00    +0.040 A 
ATOM      3  C4  UNL     1      31.651  96.132  -6.738  0.00  0.00    +0.005 A 
ATOM      4  C5  UNL     1      32.294  97.119  -7.503  0.00  0.00    +0.019 A 
ATOM      5  C18 UNL     1      31.564  98.267  -7.865  0.00  0.00    +0.041 A 
ATOM      6  C19 UNL     1      30.236  98.456  -7.438  0.00  0.00    +0.172 A 
ENDROOT
BRANCH   4   7
ATOM      7  C6  UNL     1      33.722  97.014  -7.923  0.00  0.00    +0.086 C 
ATOM      8  N1  UNL     1      34.230  95.870  -8.257  0.00  0.00    -0.171 NA
ATOM      9  N2  UNL     1      35.558  96.025  -8.646  0.00  0.00    -0.222 N 
ATOM     10  C14 UNL     1      35.903  97.266  -8.555  0.00  0.00    +0.257 C 
ATOM     11  O2  UNL     1      37.179  97.732  -8.873  0.00  0.00    -0.270 OA
ATOM     12  C15 UNL     1      34.758  98.119  -8.081  0.00  0.00    +0.110 C 
ATOM     13  C16 UNL     1      35.120  98.786  -6.745  0.00  0.00    +0.015 C 
ATOM     14  C17 UNL     1      34.383  99.133  -9.176  0.00  0.00    +0.015 C 
BRANCH   9  15
ATOM     15  C7  UNL     1      36.391  94.910  -9.115  0.00  0.00    +0.108 C 
ATOM     16  C8  UNL     1      37.262  95.386 -10.298  0.00  0.00    +0.024 C 
ATOM     17  C9  UNL     1      38.410  94.426 -10.658  0.00  0.00    +0.002 C 
ATOM     18  C10 UNL     1      39.702  94.754  -9.891  0.00  0.00    +0.000 C 
ATOM     19  C11 UNL     1      39.673  94.329  -8.417  0.00  0.00    +0.000 C 
ATOM     20  C12 UNL     1      38.525  94.961  -7.615  0.00  0.00    +0.002 C 
ATOM     21  C13 UNL     1      37.167  94.299  -7.921  0.00  0.00    +0.024 C 
ENDBRANCH   9  15
ENDBRANCH   4   7
BRANCH   1  23
ATOM     22  C1  UNL     1      27.610  96.901  -5.276  0.00  0.00    +0.253 C 
ATOM     23  O1  UNL     1      28.279  97.663  -6.276  0.00  0.00    -0.468 OA
ENDBRANCH   1  23
BRANCH   6  24
ATOM     24  O3  UNL     1      29.506  99.617  -7.750  0.00  0.00    -0.472 OA
BRANCH  24  25
ATOM     25  C20 UNL     1      30.049 100.936  -7.844  0.00  0.00    +0.206 C 
BRANCH  25  26
ATOM     26  C21 UNL     1      30.207 101.364  -9.310  0.00  0.00    +0.051 C 
BRANCH  26  27
ATOM     27  C22 UNL     1      31.662 101.732  -9.618  0.00  0.00    +0.051 C 
BRANCH  27  28
ATOM     28  C23 UNL     1      32.459 101.958  -8.330  0.00  0.00    +0.206 C 
BRANCH  28  29
ATOM     29  O4  UNL     1      33.175 103.192  -8.396  0.00  0.00    -0.475 OA
BRANCH  29  30
ATOM     30  C24 UNL     1      34.403 103.383  -9.051  0.00  0.00    +0.139 A 
ATOM     31  C25 UNL     1      34.568 104.298 -10.109  0.00  0.00    +0.037 A 
ATOM     32  C26 UNL     1      35.813 104.448 -10.728  0.00  0.00    +0.006 A 
ATOM     33  C27 UNL     1      36.919 103.692 -10.300  0.00  0.00    +0.040 A 
ATOM     34  C29 UNL     1      36.751 102.784  -9.241  0.00  0.00    +0.006 A 
ATOM     35  C30 UNL     1      35.504 102.634  -8.625  0.00  0.00    +0.037 A 
BRANCH  33  36
ATOM     36  C28 UNL     1      38.240 103.853 -10.956  0.00  0.00    +0.208 A 
ATOM     37  N3  UNL     1      38.605 103.285 -12.128  0.00  0.00    -0.106 NA
ATOM     38  N4  UNL     1      39.851 103.675 -12.342  0.00  0.00    -0.021 NA
ATOM     39  N5  UNL     1      40.247 104.454 -11.351  0.00  0.00    -0.021 NA
ATOM     40  N6  UNL     1      39.268 104.584 -10.472  0.00  0.00    -0.106 NA
ENDBRANCH  33  36
ENDBRANCH  29  30
ENDBRANCH  28  29
ENDBRANCH  27  28
ENDBRANCH  26  27
ENDBRANCH  25  26
ENDBRANCH  24  25
ENDBRANCH   6  24
TORSDOF 11
ENDMDL
MODEL 6
REMARK VINA RESULT:      -3.8      2.574      7.834
REMARK  Name = ./data/4u7t_site_bc02/pdb/l0c0.pdb
REMARK  11 active torsions:
REMARK  status: ('A' for Active; 'I' for Inactive)
REMARK    1  A    between atoms: O1_2  and  C2_3
REMARK    2  A    between atoms: C5_6  and  C6_7
REMARK    3  A    between atoms: N2_9  and  C7_10
REMARK    4  A    between atoms: C19_23  and  O3_24
REMARK    5  A    between atoms: O3_24  and  C20_25
REMARK    6  A    between atoms: C20_25  and  C21_26
REMARK    7  A    between atoms: C21_26  and  C22_27
REMARK    8  A    between atoms: C22_27  and  C23_28
REMARK    9  A    between atoms: C23_28  and  O4_29
REMARK   10  A    between atoms: O4_29  and  C24_30
REMARK   11  A    between atoms: C27_33  and  C28_34
REMARK                            x       y       z     vdW  Elec       q    Type
REMARK                         _______ _______ _______ _____ _____    ______ ____
ROOT
ATOM      1  C2  UNL     1      30.160  97.349  -6.684  0.00  0.00    +0.172 A 
ATOM      2  C3  UNL     1      30.916  96.182  -6.469  0.00  0.00    +0.040 A 
ATOM      3  C4  UNL     1      32.205  96.061  -6.995  0.00  0.00    +0.005 A 
ATOM      4  C5  UNL     1      32.768  97.102  -7.752  0.00  0.00    +0.019 A 
ATOM      5  C18 UNL     1      31.996  98.256  -7.984  0.00  0.00    +0.041 A 
ATOM      6  C19 UNL     1      30.706  98.396  -7.437  0.00  0.00    +0.172 A 
ENDROOT
BRANCH   4   7
ATOM      7  C6  UNL     1      34.158  97.046  -8.294  0.00  0.00    +0.086 C 
ATOM      8  N1  UNL     1      34.420  96.374  -9.370  0.00  0.00    -0.171 NA
ATOM      9  N2  UNL     1      35.766  96.499  -9.702  0.00  0.00    -0.222 N 
ATOM     10  C14 UNL     1      36.368  97.245  -8.837  0.00  0.00    +0.257 C 
ATOM     11  O2  UNL     1      37.728  97.549  -8.901  0.00  0.00    -0.270 OA
ATOM     12  C15 UNL     1      35.414  97.736  -7.782  0.00  0.00    +0.110 C 
ATOM     13  C16 UNL     1      35.850  97.222  -6.401  0.00  0.00    +0.015 C 
ATOM     14  C17 UNL     1      35.318  99.271  -7.849  0.00  0.00    +0.015 C 
BRANCH   9  15
ATOM     15  C7  UNL     1      36.358  95.877 -10.895  0.00  0.00    +0.108 C 
ATOM     16  C8  UNL     1      37.353  94.780 -10.458  0.00  0.00    +0.024 C 
ATOM     17  C9  UNL     1      37.782  93.833 -11.593  0.00  0.00    +0.002 C 
ATOM     18  C10 UNL     1      36.858  92.610 -11.708  0.00  0.00    +0.000 C 
ATOM     19  C11 UNL     1      35.497  92.918 -12.343  0.00  0.00    +0.000 C 
ATOM     20  C12 UNL     1      34.695  93.993 -11.592  0.00  0.00    +0.002 C 
ATOM     21  C13 UNL     1      35.234  95.412 -11.854  0.00  0.00    +0.024 C 
ENDBRANCH   9  15
ENDBRANCH   4   7
BRANCH   1  23
ATOM     22  C1  UNL     1      28.231  96.583  -5.284  0.00  0.00    +0.253 C 
ATOM     23  O1  UNL     1      28.864  97.505  -6.166  0.00  0.00    -0.468 OA
ENDBRANCH   1  23
BRANCH   6  24
ATOM     24  O3  UNL     1      29.938  99.561  -7.619  0.00  0.00    -0.472 OA
BRANCH  24  25
ATOM     25  C20 UNL     1      30.427 100.804  -8.130  0.00  0.00    +0.206 C 
BRANCH  25  26
ATOM     26  C21 UNL     1      29.727 101.173  -9.445  0.00  0.00    +0.051 C 
BRANCH  26  27
ATOM     27  C22 UNL     1      30.212 100.278 -10.591  0.00  0.00    +0.051 C 
BRANCH  27  28
ATOM     28  C23 UNL     1      30.207 101.035 -11.923  0.00  0.00    +0.206 C 
BRANCH  28  29
ATOM     29  O4  UNL     1      31.542 101.348 -12.324  0.00  0.00    -0.475 OA
BRANCH  29  30
ATOM     30  C24 UNL     1      32.483 102.039 -11.542  0.00  0.00    +0.139 A 
ATOM     31  C25 UNL     1      32.228 103.307 -10.987  0.00  0.00    +0.037 A 
ATOM     32  C26 UNL     1      33.202 103.951 -10.216  0.00  0.00    +0.006 A 
ATOM     33  C27 UNL     1      34.446 103.340  -9.980  0.00  0.00    +0.040 A 
ATOM     34  C29 UNL     1      34.693 102.071 -10.531  0.00  0.00    +0.006 A 
ATOM     35  C30 UNL     1      33.719 101.430 -11.304  0.00  0.00    +0.037 A 
BRANCH  33  36
ATOM     36  C28 UNL     1      35.477 104.022  -9.161  0.00  0.00    +0.208 A 
ATOM     37  N3  UNL     1      35.249 104.661  -7.991  0.00  0.00    -0.106 NA
ATOM     38  N4  UNL     1      36.424 105.130  -7.604  0.00  0.00    -0.021 NA
ATOM     39  N5  UNL     1      37.347 104.796  -8.489  0.00  0.00    -0.021 NA
ATOM     40  N6  UNL     1      36.789 104.107  -9.471  0.00  0.00    -0.106 NA
ENDBRANCH  33  36
ENDBRANCH  29  30
ENDBRANCH  28  29
ENDBRANCH  27  28
ENDBRANCH  26  27
ENDBRANCH  25  26
ENDBRANCH  24  25
ENDBRANCH   6  24
TORSDOF 11
ENDMDL
