MODEL 1
REMARK VINA RESULT:      -9.0      0.000      0.000
REMARK  Name = ./data/4u7t_site_bc02/pdb/l1c1.pdb
REMARK  11 active torsions:
REMARK  status: ('A' for Active; 'I' for Inactive)
REMARK    1  A    between atoms: O1_2  and  C2_3
REMARK    2  A    between atoms: C5_6  and  C6_7
REMARK    3  A    between atoms: N2_9  and  C7_10
REMARK    4  A    between atoms: C22_26  and  O3_27
REMARK    5  A    between atoms: O3_27  and  C23_28
REMARK    6  A    between atoms: C23_28  and  C24_29
REMARK    7  A    between atoms: C24_29  and  C25_30
REMARK    8  A    between atoms: C25_30  and  C26_31
REMARK    9  A    between atoms: C26_31  and  O4_32
REMARK   10  A    between atoms: O4_32  and  C27_33
REMARK   11  A    between atoms: C30_36  and  C31_37
REMARK                            x       y       z     vdW  Elec       q    Type
REMARK                         _______ _______ _______ _____ _____    ______ ____
ROOT
ATOM      1  C2  UNL     1      20.723  60.381   2.622  0.00  0.00    +0.172 A 
ATOM      2  C3  UNL     1      20.153  60.170   3.890  0.00  0.00    +0.040 A 
ATOM      3  C4  UNL     1      19.029  59.357   4.037  0.00  0.00    +0.005 A 
ATOM      4  C5  UNL     1      18.450  58.719   2.924  0.00  0.00    +0.018 A 
ATOM      5  C21 UNL     1      19.037  58.921   1.658  0.00  0.00    +0.041 A 
ATOM      6  C22 UNL     1      20.157  59.760   1.500  0.00  0.00    +0.172 A 
ENDROOT
BRANCH   4   7
ATOM      7  C6  UNL     1      17.233  57.859   3.051  0.00  0.00    +0.079 C 
ATOM      8  N1  UNL     1      16.555  57.915   4.156  0.00  0.00    -0.172 NA
ATOM      9  N2  UNL     1      15.419  57.137   4.451  0.00  0.00    -0.222 N 
ATOM     10  C14 UNL     1      14.850  56.385   3.538  0.00  0.00    +0.253 C 
ATOM     11  O2  UNL     1      13.660  55.715   3.836  0.00  0.00    -0.271 OA
ATOM     12  C15 UNL     1      15.418  56.276   2.133  0.00  0.00    +0.091 C 
ATOM     13  C16 UNL     1      15.280  54.807   1.613  0.00  0.00    +0.035 C 
ATOM     14  C17 UNL     1      16.347  54.411   0.627  0.00  0.00    -0.030 C 
ATOM     15  C18 UNL     1      17.614  54.784   0.836  0.00  0.00    -0.030 C 
ATOM     16  C19 UNL     1      17.925  55.708   1.975  0.00  0.00    +0.032 C 
ATOM     17  C20 UNL     1      16.873  56.837   1.997  0.00  0.00    +0.056 C 
BRANCH   9  18
ATOM     18  C7  UNL     1      14.879  57.279   5.823  0.00  0.00    +0.108 C 
ATOM     19  C8  UNL     1      15.834  56.637   6.854  0.00  0.00    +0.024 C 
ATOM     20  C9  UNL     1      15.162  56.316   8.195  0.00  0.00    +0.002 C 
ATOM     21  C10 UNL     1      14.562  57.546   8.894  0.00  0.00    +0.000 C 
ATOM     22  C11 UNL     1      13.228  57.982   8.264  0.00  0.00    +0.000 C 
ATOM     23  C12 UNL     1      13.358  58.962   7.083  0.00  0.00    +0.002 C 
ATOM     24  C13 UNL     1      14.570  58.760   6.153  0.00  0.00    +0.024 C 
ENDBRANCH   9  18
ENDBRANCH   4   7
BRANCH   1  26
ATOM     25  C1  UNL     1      21.832  62.620   2.493  0.00  0.00    +0.253 C 
ATOM     26  O1  UNL     1      21.850  61.198   2.437  0.00  0.00    -0.468 OA
ENDBRANCH   1  26
BRANCH   6  27
ATOM     27  O3  UNL     1      20.731  60.009   0.244  0.00  0.00    -0.472 OA
BRANCH  27  28
ATOM     28  C23 UNL     1      21.150  58.999  -0.672  0.00  0.00    +0.206 C 
BRANCH  28  29
ATOM     29  C24 UNL     1      19.953  58.492  -1.478  0.00  0.00    +0.051 C 
BRANCH  29  30
ATOM     30  C25 UNL     1      20.381  58.030  -2.879  0.00  0.00    +0.051 C 
BRANCH  30  31
ATOM     31  C26 UNL     1      20.038  59.070  -3.945  0.00  0.00    +0.206 C 
BRANCH  31  32
ATOM     32  O4  UNL     1      20.860  60.225  -3.794  0.00  0.00    -0.475 OA
BRANCH  32  33
ATOM     33  C27 UNL     1      20.365  61.526  -3.613  0.00  0.00    +0.139 A 
ATOM     34  C28 UNL     1      19.312  62.046  -4.390  0.00  0.00    +0.037 A 
ATOM     35  C29 UNL     1      18.848  63.346  -4.171  0.00  0.00    +0.006 A 
ATOM     36  C30 UNL     1      19.418  64.153  -3.168  0.00  0.00    +0.040 A 
ATOM     37  C32 UNL     1      20.471  63.626  -2.397  0.00  0.00    +0.006 A 
ATOM     38  C33 UNL     1      20.939  62.328  -2.623  0.00  0.00    +0.037 A 
BRANCH  36  39
ATOM     39  C31 UNL     1      18.912  65.530  -2.927  0.00  0.00    +0.208 A 
ATOM     40  N3  UNL     1      19.666  66.581  -2.532  0.00  0.00    -0.106 NA
ATOM     41  N4  UNL     1      18.837  67.608  -2.451  0.00  0.00    -0.021 NA
ATOM     42  N5  UNL     1      17.618  67.220  -2.779  0.00  0.00    -0.021 NA
ATOM     43  N6  UNL     1      17.630  65.932  -3.082  0.00  0.00    -0.106 NA
ENDBRANCH  36  39
ENDBRANCH  32  33
ENDBRANCH  31  32
ENDBRANCH  30  31
ENDBRANCH  29  30
ENDBRANCH  28  29
ENDBRANCH  27  28
ENDBRANCH   6  27
TORSDOF 11
ENDMDL
MODEL 2
REMARK VINA RESULT:      -9.0      4.903      6.057
REMARK  Name = ./data/4u7t_site_bc02/pdb/l1c1.pdb
REMARK  11 active torsions:
REMARK  status: ('A' for Active; 'I' for Inactive)
REMARK    1  A    between atoms: O1_2  and  C2_3
REMARK    2  A    between atoms: C5_6  and  C6_7
REMARK    3  A    between atoms: N2_9  and  C7_10
REMARK    4  A    between atoms: C22_26  and  O3_27
REMARK    5  A    between atoms: O3_27  and  C23_28
REMARK    6  A    between atoms: C23_28  and  C24_29
REMARK    7  A    between atoms: C24_29  and  C25_30
REMARK    8  A    between atoms: C25_30  and  C26_31
REMARK    9  A    between atoms: C26_31  and  O4_32
REMARK   10  A    between atoms: O4_32  and  C27_33
REMARK   11  A    between atoms: C30_36  and  C31_37
REMARK                            x       y       z     vdW  Elec       q    Type
REMARK                         _______ _______ _______ _____ _____    ______ ____
ROOT
ATOM      1  C2  UNL     1      20.953  60.599   0.071  0.00  0.00    +0.172 A 
ATOM      2  C3  UNL     1      20.742  60.919   1.423  0.00  0.00    +0.040 A 
ATOM      3  C4  UNL     1      20.328  59.941   2.328  0.00  0.00    +0.005 A 
ATOM      4  C5  UNL     1      20.126  58.612   1.911  0.00  0.00    +0.018 A 
ATOM      5  C21 UNL     1      20.355  58.294   0.557  0.00  0.00    +0.041 A 
ATOM      6  C22 UNL     1      20.750  59.282  -0.366  0.00  0.00    +0.172 A 
ENDROOT
BRANCH   4   7
ATOM      7  C6  UNL     1      19.662  57.549   2.856  0.00  0.00    +0.079 C 
ATOM      8  N1  UNL     1      18.398  57.490   3.140  0.00  0.00    -0.172 NA
ATOM      9  N2  UNL     1      17.811  56.585   4.044  0.00  0.00    -0.222 N 
ATOM     10  C14 UNL     1      18.500  55.597   4.566  0.00  0.00    +0.253 C 
ATOM     11  O2  UNL     1      17.857  54.653   5.372  0.00  0.00    -0.271 OA
ATOM     12  C15 UNL     1      19.978  55.412   4.262  0.00  0.00    +0.091 C 
ATOM     13  C16 UNL     1      20.734  54.941   5.548  0.00  0.00    +0.035 C 
ATOM     14  C17 UNL     1      22.175  55.375   5.595  0.00  0.00    -0.030 C 
ATOM     15  C18 UNL     1      22.510  56.608   5.204  0.00  0.00    -0.030 C 
ATOM     16  C19 UNL     1      21.462  57.490   4.594  0.00  0.00    +0.032 C 
ATOM     17  C20 UNL     1      20.642  56.658   3.586  0.00  0.00    +0.056 C 
BRANCH   9  18
ATOM     18  C7  UNL     1      16.367  56.779   4.307  0.00  0.00    +0.108 C 
ATOM     19  C8  UNL     1      16.119  58.131   5.014  0.00  0.00    +0.024 C 
ATOM     20  C9  UNL     1      14.766  58.207   5.734  0.00  0.00    +0.002 C 
ATOM     21  C10 UNL     1      13.561  57.997   4.805  0.00  0.00    +0.000 C 
ATOM     22  C11 UNL     1      13.351  56.515   4.446  0.00  0.00    +0.000 C 
ATOM     23  C12 UNL     1      14.136  56.030   3.212  0.00  0.00    +0.002 C 
ATOM     24  C13 UNL     1      15.537  56.638   3.007  0.00  0.00    +0.024 C 
ENDBRANCH   9  18
ENDBRANCH   4   7
BRANCH   1  26
ATOM     25  C1  UNL     1      22.562  62.319  -0.773  0.00  0.00    +0.253 C 
ATOM     26  O1  UNL     1      21.363  61.559  -0.869  0.00  0.00    -0.468 OA
ENDBRANCH   1  26
BRANCH   6  27
ATOM     27  O3  UNL     1      20.943  58.998  -1.727  0.00  0.00    -0.472 OA
BRANCH  27  28
ATOM     28  C23 UNL     1      20.032  58.259  -2.539  0.00  0.00    +0.206 C 
BRANCH  28  29
ATOM     29  C24 UNL     1      19.943  58.883  -3.932  0.00  0.00    +0.051 C 
BRANCH  29  30
ATOM     30  C25 UNL     1      19.843  60.414  -3.851  0.00  0.00    +0.051 C 
BRANCH  30  31
ATOM     31  C26 UNL     1      19.377  61.020  -5.174  0.00  0.00    +0.206 C 
BRANCH  31  32
ATOM     32  O4  UNL     1      18.840  60.006  -6.021  0.00  0.00    -0.475 OA
BRANCH  32  33
ATOM     33  C27 UNL     1      19.499  59.495  -7.151  0.00  0.00    +0.139 A 
ATOM     34  C28 UNL     1      18.897  58.562  -8.017  0.00  0.00    +0.037 A 
ATOM     35  C29 UNL     1      19.589  58.085  -9.132  0.00  0.00    +0.006 A 
ATOM     36  C30 UNL     1      20.894  58.533  -9.414  0.00  0.00    +0.040 A 
ATOM     37  C32 UNL     1      21.490  59.464  -8.543  0.00  0.00    +0.006 A 
ATOM     38  C33 UNL     1      20.798  59.934  -7.422  0.00  0.00    +0.037 A 
BRANCH  36  39
ATOM     39  C31 UNL     1      21.623  58.034 -10.611  0.00  0.00    +0.208 A 
ATOM     40  N3  UNL     1      21.341  56.892 -11.277  0.00  0.00    -0.106 NA
ATOM     41  N4  UNL     1      22.208  56.833 -12.273  0.00  0.00    -0.021 NA
ATOM     42  N5  UNL     1      23.000  57.889 -12.234  0.00  0.00    -0.021 NA
ATOM     43  N6  UNL     1      22.662  58.658 -11.211  0.00  0.00    -0.106 NA
ENDBRANCH  36  39
ENDBRANCH  32  33
ENDBRANCH  31  32
ENDBRANCH  30  31
ENDBRANCH  29  30
ENDBRANCH  28  29
ENDBRANCH  27  28
ENDBRANCH   6  27
TORSDOF 11
ENDMDL
MODEL 3
REMARK VINA RESULT:      -8.6      4.197     11.624
REMARK  Name = ./data/4u7t_site_bc02/pdb/l1c1.pdb
REMARK  11 active torsions:
REMARK  status: ('A' for Active; 'I' for Inactive)
REMARK    1  A    between atoms: O1_2  and  C2_3
REMARK    2  A    between atoms: C5_6  and  C6_7
REMARK    3  A    between atoms: N2_9  and  C7_10
REMARK    4  A    between atoms: C22_26  and  O3_27
REMARK    5  A    between atoms: O3_27  and  C23_28
REMARK    6  A    between atoms: C23_28  and  C24_29
REMARK    7  A    between atoms: C24_29  and  C25_30
REMARK    8  A    between atoms: C25_30  and  C26_31
REMARK    9  A    between atoms: C26_31  and  O4_32
REMARK   10  A    between atoms: O4_32  and  C27_33
REMARK   11  A    between atoms: C30_36  and  C31_37
REMARK                            x       y       z     vdW  Elec       q    Type
REMARK                         _______ _______ _______ _____ _____    ______ ____
ROOT
ATOM      1  C2  UNL     1      19.469  62.404  -3.579  0.00  0.00    +0.172 A 
ATOM      2  C3  UNL     1      18.527  61.980  -4.532  0.00  0.00    +0.040 A 
ATOM      3  C4  UNL     1      18.801  60.894  -5.366  0.00  0.00    +0.005 A 
ATOM      4  C5  UNL     1      20.016  60.193  -5.261  0.00  0.00    +0.018 A 
ATOM      5  C21 UNL     1      20.949  60.613  -4.291  0.00  0.00    +0.041 A 
ATOM      6  C22 UNL     1      20.689  61.723  -3.463  0.00  0.00    +0.172 A 
ENDROOT
BRANCH   4   7
ATOM      7  C6  UNL     1      20.343  59.040  -6.156  0.00  0.00    +0.079 C 
ATOM      8  N1  UNL     1      20.692  59.292  -7.379  0.00  0.00    -0.172 NA
ATOM      9  N2  UNL     1      20.982  58.322  -8.357  0.00  0.00    -0.222 N 
ATOM     10  C14 UNL     1      21.077  57.050  -8.049  0.00  0.00    +0.253 C 
ATOM     11  O2  UNL     1      21.476  56.129  -9.023  0.00  0.00    -0.271 OA
ATOM     12  C15 UNL     1      20.827  56.553  -6.635  0.00  0.00    +0.091 C 
ATOM     13  C16 UNL     1      20.069  55.185  -6.673  0.00  0.00    +0.035 C 
ATOM     14  C17 UNL     1      19.190  54.947  -5.474  0.00  0.00    -0.030 C 
ATOM     15  C18 UNL     1      18.454  55.947  -4.981  0.00  0.00    -0.030 C 
ATOM     16  C19 UNL     1      18.624  57.325  -5.547  0.00  0.00    +0.032 C 
ATOM     17  C20 UNL     1      20.131  57.610  -5.712  0.00  0.00    +0.056 C 
BRANCH   9  18
ATOM     18  C7  UNL     1      21.239  58.837  -9.721  0.00  0.00    +0.108 C 
ATOM     19  C8  UNL     1      20.865  60.334  -9.818  0.00  0.00    +0.024 C 
ATOM     20  C9  UNL     1      20.646  60.819 -11.257  0.00  0.00    +0.002 C 
ATOM     21  C10 UNL     1      21.876  60.638 -12.161  0.00  0.00    +0.000 C 
ATOM     22  C11 UNL     1      22.054  59.181 -12.620  0.00  0.00    +0.000 C 
ATOM     23  C12 UNL     1      22.875  58.297 -11.661  0.00  0.00    +0.002 C 
ATOM     24  C13 UNL     1      22.701  58.570 -10.156  0.00  0.00    +0.024 C 
ENDBRANCH   9  18
ENDBRANCH   4   7
BRANCH   1  26
ATOM     25  C1  UNL     1      19.305  64.860  -3.128  0.00  0.00    +0.253 C 
ATOM     26  O1  UNL     1      19.230  63.496  -2.728  0.00  0.00    -0.468 OA
ENDBRANCH   1  26
BRANCH   6  27
ATOM     27  O3  UNL     1      21.620  62.185  -2.520  0.00  0.00    -0.472 OA
BRANCH  27  28
ATOM     28  C23 UNL     1      21.787  61.643  -1.211  0.00  0.00    +0.206 C 
BRANCH  28  29
ATOM     29  C24 UNL     1      22.383  62.697  -0.277  0.00  0.00    +0.051 C 
BRANCH  29  30
ATOM     30  C25 UNL     1      22.824  62.075   1.056  0.00  0.00    +0.051 C 
BRANCH  30  31
ATOM     31  C26 UNL     1      21.837  62.392   2.179  0.00  0.00    +0.206 C 
BRANCH  31  32
ATOM     32  O4  UNL     1      21.821  61.335   3.137  0.00  0.00    -0.475 OA
BRANCH  32  33
ATOM     33  C27 UNL     1      20.726  60.484   3.351  0.00  0.00    +0.139 A 
ATOM     34  C28 UNL     1      20.010  59.895   2.291  0.00  0.00    +0.037 A 
ATOM     35  C29 UNL     1      18.929  59.050   2.553  0.00  0.00    +0.006 A 
ATOM     36  C30 UNL     1      18.541  58.767   3.876  0.00  0.00    +0.040 A 
ATOM     37  C32 UNL     1      19.261  59.360   4.930  0.00  0.00    +0.006 A 
ATOM     38  C33 UNL     1      20.338  60.213   4.666  0.00  0.00    +0.037 A 
BRANCH  36  39
ATOM     39  C31 UNL     1      17.399  57.855   4.151  0.00  0.00    +0.208 A 
ATOM     40  N3  UNL     1      16.325  57.685   3.349  0.00  0.00    -0.106 NA
ATOM     41  N4  UNL     1      15.564  56.787   3.951  0.00  0.00    -0.021 NA
ATOM     42  N5  UNL     1      16.134  56.410   5.082  0.00  0.00    -0.021 NA
ATOM     43  N6  UNL     1      17.278  57.056   5.236  0.00  0.00    -0.106 NA
ENDBRANCH  36  39
ENDBRANCH  32  33
ENDBRANCH  31  32
ENDBRANCH  30  31
ENDBRANCH  29  30
ENDBRANCH  28  29
ENDBRANCH  27  28
ENDBRANCH   6  27
TORSDOF 11
ENDMDL
MODEL 4
REMARK VINA RESULT:      -8.6      4.011      7.306
REMARK  Name = ./data/4u7t_site_bc02/pdb/l1c1.pdb
REMARK  11 active torsions:
REMARK  status: ('A' for Active; 'I' for Inactive)
REMARK    1  A    between atoms: O1_2  and  C2_3
REMARK    2  A    between atoms: C5_6  and  C6_7
REMARK    3  A    between atoms: N2_9  and  C7_10
REMARK    4  A    between atoms: C22_26  and  O3_27
REMARK    5  A    between atoms: O3_27  and  C23_28
REMARK    6  A    between atoms: C23_28  and  C24_29
REMARK    7  A    between atoms: C24_29  and  C25_30
REMARK    8  A    between atoms: C25_30  and  C26_31
REMARK    9  A    between atoms: C26_31  and  O4_32
REMARK   10  A    between atoms: O4_32  and  C27_33
REMARK   11  A    between atoms: C30_36  and  C31_37
REMARK                            x       y       z     vdW  Elec       q    Type
REMARK                         _______ _______ _______ _____ _____    ______ ____
ROOT
ATOM      1  C2  UNL     1      20.455  59.498   2.457  0.00  0.00    +0.172 A 
ATOM      2  C3  UNL     1      20.011  58.164   2.487  0.00  0.00    +0.040 A 
ATOM      3  C4  UNL     1      19.725  57.485   1.302  0.00  0.00    +0.005 A 
ATOM      4  C5  UNL     1      19.886  58.113   0.053  0.00  0.00    +0.018 A 
ATOM      5  C21 UNL     1      20.347  59.445   0.030  0.00  0.00    +0.041 A 
ATOM      6  C22 UNL     1      20.615  60.144   1.223  0.00  0.00    +0.172 A 
ENDROOT
BRANCH   4   7
ATOM      7  C6  UNL     1      19.566  57.414  -1.230  0.00  0.00    +0.079 C 
ATOM      8  N1  UNL     1      19.849  58.017  -2.344  0.00  0.00    -0.172 NA
ATOM      9  N2  UNL     1      19.568  57.519  -3.630  0.00  0.00    -0.222 N 
ATOM     10  C14 UNL     1      19.126  56.296  -3.807  0.00  0.00    +0.253 C 
ATOM     11  O2  UNL     1      18.965  55.798  -5.104  0.00  0.00    -0.271 OA
ATOM     12  C15 UNL     1      18.846  55.374  -2.632  0.00  0.00    +0.091 C 
ATOM     13  C16 UNL     1      17.564  54.522  -2.912  0.00  0.00    +0.035 C 
ATOM     14  C17 UNL     1      16.813  54.132  -1.667  0.00  0.00    -0.030 C 
ATOM     15  C18 UNL     1      16.656  55.020  -0.681  0.00  0.00    -0.030 C 
ATOM     16  C19 UNL     1      17.350  56.345  -0.775  0.00  0.00    +0.032 C 
ATOM     17  C20 UNL     1      18.798  56.112  -1.252  0.00  0.00    +0.056 C 
BRANCH   9  18
ATOM     18  C7  UNL     1      19.868  58.433  -4.756  0.00  0.00    +0.108 C 
ATOM     19  C8  UNL     1      18.916  58.164  -5.944  0.00  0.00    +0.024 C 
ATOM     20  C9  UNL     1      19.437  58.706  -7.281  0.00  0.00    +0.002 C 
ATOM     21  C10 UNL     1      19.681  60.223  -7.278  0.00  0.00    +0.000 C 
ATOM     22  C11 UNL     1      20.983  60.604  -6.552  0.00  0.00    +0.000 C 
ATOM     23  C12 UNL     1      20.837  60.824  -5.034  0.00  0.00    +0.002 C 
ATOM     24  C13 UNL     1      19.834  59.913  -4.301  0.00  0.00    +0.024 C 
ENDBRANCH   9  18
ENDBRANCH   4   7
BRANCH   1  26
ATOM     25  C1  UNL     1      19.907  60.255   4.778  0.00  0.00    +0.253 C 
ATOM     26  O1  UNL     1      20.746  60.214   3.629  0.00  0.00    -0.468 OA
ENDBRANCH   1  26
BRANCH   6  27
ATOM     27  O3  UNL     1      21.034  61.484   1.225  0.00  0.00    -0.472 OA
BRANCH  27  28
ATOM     28  C23 UNL     1      22.394  61.909   1.163  0.00  0.00    +0.206 C 
BRANCH  28  29
ATOM     29  C24 UNL     1      22.507  63.193   0.341  0.00  0.00    +0.051 C 
BRANCH  29  30
ATOM     30  C25 UNL     1      22.850  62.887  -1.125  0.00  0.00    +0.051 C 
BRANCH  30  31
ATOM     31  C26 UNL     1      21.595  62.807  -1.993  0.00  0.00    +0.206 C 
BRANCH  31  32
ATOM     32  O4  UNL     1      20.705  63.876  -1.678  0.00  0.00    -0.475 OA
BRANCH  32  33
ATOM     33  C27 UNL     1      20.577  65.045  -2.445  0.00  0.00    +0.139 A 
ATOM     34  C28 UNL     1      21.460  65.358  -3.496  0.00  0.00    +0.037 A 
ATOM     35  C29 UNL     1      21.290  66.531  -4.236  0.00  0.00    +0.006 A 
ATOM     36  C30 UNL     1      20.232  67.414  -3.950  0.00  0.00    +0.040 A 
ATOM     37  C32 UNL     1      19.355  67.096  -2.896  0.00  0.00    +0.006 A 
ATOM     38  C33 UNL     1      19.531  65.925  -2.152  0.00  0.00    +0.037 A 
BRANCH  36  39
ATOM     39  C31 UNL     1      20.045  68.654  -4.749  0.00  0.00    +0.208 A 
ATOM     40  N3  UNL     1      19.094  69.589  -4.527  0.00  0.00    -0.106 NA
ATOM     41  N4  UNL     1      19.286  70.522  -5.445  0.00  0.00    -0.021 NA
ATOM     42  N5  UNL     1      20.311  70.188  -6.208  0.00  0.00    -0.021 NA
ATOM     43  N6  UNL     1      20.806  69.031  -5.801  0.00  0.00    -0.106 NA
ENDBRANCH  36  39
ENDBRANCH  32  33
ENDBRANCH  31  32
ENDBRANCH  30  31
ENDBRANCH  29  30
ENDBRANCH  28  29
ENDBRANCH  27  28
ENDBRANCH   6  27
TORSDOF 11
ENDMDL
MODEL 5
REMARK VINA RESULT:      -7.9      4.266     11.756
REMARK  Name = ./data/4u7t_site_bc02/pdb/l1c1.pdb
REMARK  11 active torsions:
REMARK  status: ('A' for Active; 'I' for Inactive)
REMARK    1  A    between atoms: O1_2  and  C2_3
REMARK    2  A    between atoms: C5_6  and  C6_7
REMARK    3  A    between atoms: N2_9  and  C7_10
REMARK    4  A    between atoms: C22_26  and  O3_27
REMARK    5  A    between atoms: O3_27  and  C23_28
REMARK    6  A    between atoms: C23_28  and  C24_29
REMARK    7  A    between atoms: C24_29  and  C25_30
REMARK    8  A    between atoms: C25_30  and  C26_31
REMARK    9  A    between atoms: C26_31  and  O4_32
REMARK   10  A    between atoms: O4_32  and  C27_33
REMARK   11  A    between atoms: C30_36  and  C31_37
REMARK                            x       y       z     vdW  Elec       q    Type
REMARK                         _______ _______ _______ _____ _____    ______ ____
ROOT
ATOM      1  C2  UNL     1      19.572  62.563  -3.574  0.00  0.00    +0.172 A 
ATOM      2  C3  UNL     1      18.809  62.351  -4.735  0.00  0.00    +0.040 A 
ATOM      3  C4  UNL     1      19.085  61.275  -5.579  0.00  0.00    +0.005 A 
ATOM      4  C5  UNL     1      20.121  60.371  -5.280  0.00  0.00    +0.018 A 
ATOM      5  C21 UNL     1      20.872  60.580  -4.105  0.00  0.00    +0.041 A 
ATOM      6  C22 UNL     1      20.614  61.678  -3.262  0.00  0.00    +0.172 A 
ENDROOT
BRANCH   4   7
ATOM      7  C6  UNL     1      20.451  59.221  -6.178  0.00  0.00    +0.079 C 
ATOM      8  N1  UNL     1      20.858  59.481  -7.383  0.00  0.00    -0.172 NA
ATOM      9  N2  UNL     1      21.160  58.517  -8.363  0.00  0.00    -0.222 N 
ATOM     10  C14 UNL     1      21.205  57.238  -8.071  0.00  0.00    +0.253 C 
ATOM     11  O2  UNL     1      21.618  56.320  -9.041  0.00  0.00    -0.271 OA
ATOM     12  C15 UNL     1      20.883  56.729  -6.676  0.00  0.00    +0.091 C 
ATOM     13  C16 UNL     1      20.088  55.384  -6.766  0.00  0.00    +0.035 C 
ATOM     14  C17 UNL     1      19.154  55.155  -5.608  0.00  0.00    -0.030 C 
ATOM     15  C18 UNL     1      18.428  56.169  -5.130  0.00  0.00    -0.030 C 
ATOM     16  C19 UNL     1      18.660  57.550  -5.667  0.00  0.00    +0.032 C 
ATOM     17  C20 UNL     1      20.181  57.792  -5.765  0.00  0.00    +0.056 C 
BRANCH   9  18
ATOM     18  C7  UNL     1      21.488  59.043  -9.707  0.00  0.00    +0.108 C 
ATOM     19  C8  UNL     1      21.697  57.886 -10.710  0.00  0.00    +0.024 C 
ATOM     20  C9  UNL     1      22.483  58.294 -11.963  0.00  0.00    +0.002 C 
ATOM     21  C10 UNL     1      21.818  59.424 -12.765  0.00  0.00    +0.000 C 
ATOM     22  C11 UNL     1      22.027  60.803 -12.115  0.00  0.00    +0.000 C 
ATOM     23  C12 UNL     1      20.966  61.191 -11.067  0.00  0.00    +0.002 C 
ATOM     24  C13 UNL     1      20.415  60.050 -10.191  0.00  0.00    +0.024 C 
ENDBRANCH   9  18
ENDBRANCH   4   7
BRANCH   1  26
ATOM     25  C1  UNL     1      18.571  64.796  -3.049  0.00  0.00    +0.253 C 
ATOM     26  O1  UNL     1      19.327  63.640  -2.705  0.00  0.00    -0.468 OA
ENDBRANCH   1  26
BRANCH   6  27
ATOM     27  O3  UNL     1      21.375  61.930  -2.109  0.00  0.00    -0.472 OA
BRANCH  27  28
ATOM     28  C23 UNL     1      22.068  60.933  -1.361  0.00  0.00    +0.206 C 
BRANCH  28  29
ATOM     29  C24 UNL     1      21.132  60.307  -0.326  0.00  0.00    +0.051 C 
BRANCH  29  30
ATOM     30  C25 UNL     1      20.720  58.885  -0.734  0.00  0.00    +0.051 C 
BRANCH  30  31
ATOM     31  C26 UNL     1      20.022  58.150   0.409  0.00  0.00    +0.206 C 
BRANCH  31  32
ATOM     32  O4  UNL     1      19.799  59.035   1.505  0.00  0.00    -0.475 OA
BRANCH  32  33
ATOM     33  C27 UNL     1      18.877  58.795   2.536  0.00  0.00    +0.139 A 
ATOM     34  C28 UNL     1      19.085  59.244   3.854  0.00  0.00    +0.037 A 
ATOM     35  C29 UNL     1      18.137  58.985   4.846  0.00  0.00    +0.006 A 
ATOM     36  C30 UNL     1      16.956  58.280   4.546  0.00  0.00    +0.040 A 
ATOM     37  C32 UNL     1      16.755  57.833   3.227  0.00  0.00    +0.006 A 
ATOM     38  C33 UNL     1      17.710  58.085   2.236  0.00  0.00    +0.037 A 
BRANCH  36  39
ATOM     39  C31 UNL     1      15.941  58.019   5.602  0.00  0.00    +0.208 A 
ATOM     40  N3  UNL     1      14.956  58.870   5.964  0.00  0.00    -0.106 NA
ATOM     41  N4  UNL     1      14.278  58.251   6.916  0.00  0.00    -0.021 NA
ATOM     42  N5  UNL     1      14.814  57.065   7.142  0.00  0.00    -0.021 NA
ATOM     43  N6  UNL     1      15.851  56.889   6.340  0.00  0.00    -0.106 NA
ENDBRANCH  36  39
ENDBRANCH  32  33
ENDBRANCH  31  32
ENDBRANCH  30  31
ENDBRANCH  29  30
ENDBRANCH  28  29
ENDBRANCH  27  28
ENDBRANCH   6  27
TORSDOF 11
ENDMDL
MODEL 6
REMARK VINA RESULT:      -7.2      3.684      6.601
REMARK  Name = ./data/4u7t_site_bc02/pdb/l1c1.pdb
REMARK  11 active torsions:
REMARK  status: ('A' for Active; 'I' for Inactive)
REMARK    1  A    between atoms: O1_2  and  C2_3
REMARK    2  A    between atoms: C5_6  and  C6_7
REMARK    3  A    between atoms: N2_9  and  C7_10
REMARK    4  A    between atoms: C22_26  and  O3_27
REMARK    5  A    between atoms: O3_27  and  C23_28
REMARK    6  A    between atoms: C23_28  and  C24_29
REMARK    7  A    between atoms: C24_29  and  C25_30
REMARK    8  A    between atoms: C25_30  and  C26_31
REMARK    9  A    between atoms: C26_31  and  O4_32
REMARK   10  A    between atoms: O4_32  and  C27_33
REMARK   11  A    between atoms: C30_36  and  C31_37
REMARK                            x       y       z     vdW  Elec       q    Type
REMARK                         _______ _______ _______ _____ _____    ______ ____
ROOT
ATOM      1  C2  UNL     1      20.718  59.430   3.027  0.00  0.00    +0.172 A 
ATOM      2  C3  UNL     1      20.331  58.144   3.443  0.00  0.00    +0.040 A 
ATOM      3  C4  UNL     1      19.741  57.255   2.544  0.00  0.00    +0.005 A 
ATOM      4  C5  UNL     1      19.534  57.620   1.200  0.00  0.00    +0.018 A 
ATOM      5  C21 UNL     1      19.940  58.905   0.786  0.00  0.00    +0.041 A 
ATOM      6  C22 UNL     1      20.514  59.816   1.695  0.00  0.00    +0.172 A 
ENDROOT
BRANCH   4   7
ATOM      7  C6  UNL     1      18.885  56.694   0.221  0.00  0.00    +0.079 C 
ATOM      8  N1  UNL     1      19.172  56.832  -1.037  0.00  0.00    -0.172 NA
ATOM      9  N2  UNL     1      18.612  56.077  -2.084  0.00  0.00    -0.222 N 
ATOM     10  C14 UNL     1      17.850  55.036  -1.844  0.00  0.00    +0.253 C 
ATOM     11  O2  UNL     1      17.404  54.243  -2.906  0.00  0.00    -0.271 OA
ATOM     12  C15 UNL     1      17.492  54.624  -0.426  0.00  0.00    +0.091 C 
ATOM     13  C16 UNL     1      16.008  54.130  -0.370  0.00  0.00    +0.035 C 
ATOM     14  C17 UNL     1      15.345  54.357   0.962  0.00  0.00    -0.030 C 
ATOM     15  C18 UNL     1      15.548  55.504   1.618  0.00  0.00    -0.030 C 
ATOM     16  C19 UNL     1      16.543  56.487   1.079  0.00  0.00    +0.032 C 
ATOM     17  C20 UNL     1      17.810  55.719   0.647  0.00  0.00    +0.056 C 
BRANCH   9  18
ATOM     18  C7  UNL     1      18.994  56.490  -3.454  0.00  0.00    +0.108 C 
ATOM     19  C8  UNL     1      19.573  57.924  -3.449  0.00  0.00    +0.024 C 
ATOM     20  C9  UNL     1      19.550  58.599  -4.827  0.00  0.00    +0.002 C 
ATOM     21  C10 UNL     1      20.341  57.834  -5.900  0.00  0.00    +0.000 C 
ATOM     22  C11 UNL     1      19.576  56.607  -6.426  0.00  0.00    +0.000 C 
ATOM     23  C12 UNL     1      19.799  55.312  -5.621  0.00  0.00    +0.002 C 
ATOM     24  C13 UNL     1      19.964  55.469  -4.098  0.00  0.00    +0.024 C 
ENDBRANCH   9  18
ENDBRANCH   4   7
BRANCH   1  26
ATOM     25  C1  UNL     1      21.122  60.354   5.318  0.00  0.00    +0.253 C 
ATOM     26  O1  UNL     1      21.308  60.353   3.907  0.00  0.00    -0.468 OA
ENDBRANCH   1  26
BRANCH   6  27
ATOM     27  O3  UNL     1      20.886  61.115   1.315  0.00  0.00    -0.472 OA
BRANCH  27  28
ATOM     28  C23 UNL     1      22.147  61.464   0.747  0.00  0.00    +0.206 C 
BRANCH  28  29
ATOM     29  C24 UNL     1      22.180  62.958   0.420  0.00  0.00    +0.051 C 
BRANCH  29  30
ATOM     30  C25 UNL     1      22.573  63.198  -1.046  0.00  0.00    +0.051 C 
BRANCH  30  31
ATOM     31  C26 UNL     1      21.406  62.927  -1.994  0.00  0.00    +0.206 C 
BRANCH  31  32
ATOM     32  O4  UNL     1      20.419  63.948  -1.870  0.00  0.00    -0.475 OA
BRANCH  32  33
ATOM     33  C27 UNL     1      20.404  65.125  -2.635  0.00  0.00    +0.139 A 
ATOM     34  C28 UNL     1      21.396  65.417  -3.590  0.00  0.00    +0.037 A 
ATOM     35  C29 UNL     1      21.337  66.599  -4.332  0.00  0.00    +0.006 A 
ATOM     36  C30 UNL     1      20.284  67.514  -4.143  0.00  0.00    +0.040 A 
ATOM     37  C32 UNL     1      19.297  67.217  -3.186  0.00  0.00    +0.006 A 
ATOM     38  C33 UNL     1      19.362  66.036  -2.438  0.00  0.00    +0.037 A 
BRANCH  36  39
ATOM     39  C31 UNL     1      20.216  68.765  -4.945  0.00  0.00    +0.208 A 
ATOM     40  N3  UNL     1      20.980  69.041  -6.026  0.00  0.00    -0.106 NA
ATOM     41  N4  UNL     1      20.594  70.236  -6.442  0.00  0.00    -0.021 NA
ATOM     42  N5  UNL     1      19.632  70.689  -5.658  0.00  0.00    -0.021 NA
ATOM     43  N6  UNL     1      19.373  69.797  -4.716  0.00  0.00    -0.106 NA
ENDBRANCH  36  39
ENDBRANCH  32  33
ENDBRANCH  31  32
ENDBRANCH  30  31
ENDBRANCH  29  30
ENDBRANCH  28  29
ENDBRANCH  27  28
ENDBRANCH   6  27
TORSDOF 11
ENDMDL
MODEL 7
REMARK VINA RESULT:      -6.4      4.753     12.529
REMARK  Name = ./data/4u7t_site_bc02/pdb/l1c1.pdb
REMARK  11 active torsions:
REMARK  status: ('A' for Active; 'I' for Inactive)
REMARK    1  A    between atoms: O1_2  and  C2_3
REMARK    2  A    between atoms: C5_6  and  C6_7
REMARK    3  A    between atoms: N2_9  and  C7_10
REMARK    4  A    between atoms: C22_26  and  O3_27
REMARK    5  A    between atoms: O3_27  and  C23_28
REMARK    6  A    between atoms: C23_28  and  C24_29
REMARK    7  A    between atoms: C24_29  and  C25_30
REMARK    8  A    between atoms: C25_30  and  C26_31
REMARK    9  A    between atoms: C26_31  and  O4_32
REMARK   10  A    between atoms: O4_32  and  C27_33
REMARK   11  A    between atoms: C30_36  and  C31_37
REMARK                            x       y       z     vdW  Elec       q    Type
REMARK                         _______ _______ _______ _____ _____    ______ ____
ROOT
ATOM      1  C2  UNL     1      20.181  62.404  -3.381  0.00  0.00    +0.172 A 
ATOM      2  C3  UNL     1      19.948  62.618  -4.751  0.00  0.00    +0.040 A 
ATOM      3  C4  UNL     1      20.092  61.575  -5.667  0.00  0.00    +0.005 A 
ATOM      4  C5  UNL     1      20.458  60.285  -5.239  0.00  0.00    +0.018 A 
ATOM      5  C21 UNL     1      20.673  60.074  -3.862  0.00  0.00    +0.041 A 
ATOM      6  C22 UNL     1      20.553  61.128  -2.935  0.00  0.00    +0.172 A 
ENDROOT
BRANCH   4   7
ATOM      7  C6  UNL     1      20.639  59.155  -6.202  0.00  0.00    +0.079 C 
ATOM      8  N1  UNL     1      21.018  59.434  -7.411  0.00  0.00    -0.172 NA
ATOM      9  N2  UNL     1      21.186  58.494  -8.446  0.00  0.00    -0.222 N 
ATOM     10  C14 UNL     1      21.122  57.204  -8.214  0.00  0.00    +0.253 C 
ATOM     11  O2  UNL     1      21.404  56.300  -9.242  0.00  0.00    -0.271 OA
ATOM     12  C15 UNL     1      20.811  56.660  -6.829  0.00  0.00    +0.091 C 
ATOM     13  C16 UNL     1      19.889  55.401  -6.943  0.00  0.00    +0.035 C 
ATOM     14  C17 UNL     1      18.987  55.204  -5.754  0.00  0.00    -0.030 C 
ATOM     15  C18 UNL     1      18.380  56.257  -5.198  0.00  0.00    -0.030 C 
ATOM     16  C19 UNL     1      18.721  57.634  -5.683  0.00  0.00    +0.032 C 
ATOM     17  C20 UNL     1      20.252  57.738  -5.841  0.00  0.00    +0.056 C 
BRANCH   9  18
ATOM     18  C7  UNL     1      21.506  59.053  -9.779  0.00  0.00    +0.108 C 
ATOM     19  C8  UNL     1      21.721  57.920 -10.808  0.00  0.00    +0.024 C 
ATOM     20  C9  UNL     1      22.499  58.362 -12.054  0.00  0.00    +0.002 C 
ATOM     21  C10 UNL     1      21.824  59.504 -12.828  0.00  0.00    +0.000 C 
ATOM     22  C11 UNL     1      22.025  60.870 -12.149  0.00  0.00    +0.000 C 
ATOM     23  C12 UNL     1      20.966  61.227 -11.089  0.00  0.00    +0.002 C 
ATOM     24  C13 UNL     1      20.425  60.063 -10.238  0.00  0.00    +0.024 C 
ENDBRANCH   9  18
ENDBRANCH   4   7
BRANCH   1  26
ATOM     25  C1  UNL     1      20.852  64.609  -2.406  0.00  0.00    +0.253 C 
ATOM     26  O1  UNL     1      20.052  63.432  -2.433  0.00  0.00    -0.468 OA
ENDBRANCH   1  26
BRANCH   6  27
ATOM     27  O3  UNL     1      20.804  60.951  -1.566  0.00  0.00    -0.472 OA
BRANCH  27  28
ATOM     28  C23 UNL     1      21.116  59.701  -0.953  0.00  0.00    +0.206 C 
BRANCH  28  29
ATOM     29  C24 UNL     1      20.686  59.713   0.515  0.00  0.00    +0.051 C 
BRANCH  29  30
ATOM     30  C25 UNL     1      19.684  58.587   0.811  0.00  0.00    +0.051 C 
BRANCH  30  31
ATOM     31  C26 UNL     1      19.960  57.928   2.161  0.00  0.00    +0.206 C 
BRANCH  31  32
ATOM     32  O4  UNL     1      18.741  57.736   2.877  0.00  0.00    -0.475 OA
BRANCH  32  33
ATOM     33  C27 UNL     1      18.671  57.283   4.204  0.00  0.00    +0.139 A 
ATOM     34  C28 UNL     1      19.758  56.662   4.847  0.00  0.00    +0.037 A 
ATOM     35  C29 UNL     1      19.644  56.232   6.172  0.00  0.00    +0.006 A 
ATOM     36  C30 UNL     1      18.445  56.418   6.886  0.00  0.00    +0.040 A 
ATOM     37  C32 UNL     1      17.362  57.038   6.236  0.00  0.00    +0.006 A 
ATOM     38  C33 UNL     1      17.476  57.461   4.908  0.00  0.00    +0.037 A 
BRANCH  36  39
ATOM     39  C31 UNL     1      18.331  55.972   8.301  0.00  0.00    +0.208 A 
ATOM     40  N3  UNL     1      17.749  54.824   8.713  0.00  0.00    -0.106 NA
ATOM     41  N4  UNL     1      17.874  54.809  10.029  0.00  0.00    -0.021 NA
ATOM     42  N5  UNL     1      18.506  55.900  10.426  0.00  0.00    -0.021 NA
ATOM     43  N6  UNL     1      18.805  56.644   9.375  0.00  0.00    -0.106 NA
ENDBRANCH  36  39
ENDBRANCH  32  33
ENDBRANCH  31  32
ENDBRANCH  30  31
ENDBRANCH  29  30
ENDBRANCH  28  29
ENDBRANCH  27  28
ENDBRANCH   6  27
TORSDOF 11
ENDMDL
