MODEL 1
REMARK VINA RESULT:      -9.5      0.000      0.000
REMARK  Name = ./data/4u7t_site_bc02/pdb/l1c0.pdb
REMARK  11 active torsions:
REMARK  status: ('A' for Active; 'I' for Inactive)
REMARK    1  A    between atoms: O1_2  and  C2_3
REMARK    2  A    between atoms: C5_6  and  C6_7
REMARK    3  A    between atoms: N2_9  and  C7_10
REMARK    4  A    between atoms: C22_26  and  O3_27
REMARK    5  A    between atoms: O3_27  and  C23_28
REMARK    6  A    between atoms: C23_28  and  C24_29
REMARK    7  A    between atoms: C24_29  and  C25_30
REMARK    8  A    between atoms: C25_30  and  C26_31
REMARK    9  A    between atoms: C26_31  and  O4_32
REMARK   10  A    between atoms: O4_32  and  C27_33
REMARK   11  A    between atoms: C30_36  and  C31_37
REMARK                            x       y       z     vdW  Elec       q    Type
REMARK                         _______ _______ _______ _____ _____    ______ ____
ROOT
ATOM      1  C2  UNL     1      39.559  74.196  -5.356  0.00  0.00    +0.172 A 
ATOM      2  C3  UNL     1      39.018  73.152  -6.124  0.00  0.00    +0.040 A 
ATOM      3  C4  UNL     1      39.354  73.018  -7.471  0.00  0.00    +0.005 A 
ATOM      4  C5  UNL     1      40.244  73.915  -8.087  0.00  0.00    +0.018 A 
ATOM      5  C21 UNL     1      40.795  74.952  -7.308  0.00  0.00    +0.041 A 
ATOM      6  C22 UNL     1      40.440  75.109  -5.952  0.00  0.00    +0.172 A 
ENDROOT
BRANCH   4   7
ATOM      7  C6  UNL     1      40.586  73.748  -9.533  0.00  0.00    +0.079 C 
ATOM      8  N1  UNL     1      40.200  72.667 -10.144  0.00  0.00    -0.172 NA
ATOM      9  N2  UNL     1      40.458  72.389 -11.502  0.00  0.00    -0.222 N 
ATOM     10  C14 UNL     1      40.878  73.332 -12.315  0.00  0.00    +0.253 C 
ATOM     11  O2  UNL     1      41.029  73.055 -13.678  0.00  0.00    -0.271 OA
ATOM     12  C15 UNL     1      41.114  74.744 -11.792  0.00  0.00    +0.091 C 
ATOM     13  C16 UNL     1      42.231  75.494 -12.547  0.00  0.00    +0.035 C 
ATOM     14  C17 UNL     1      43.529  74.766 -12.372  0.00  0.00    -0.030 C 
ATOM     15  C18 UNL     1      43.851  74.258 -11.176  0.00  0.00    -0.030 C 
ATOM     16  C19 UNL     1      42.973  74.468  -9.964  0.00  0.00    +0.032 C 
ATOM     17  C20 UNL     1      41.462  74.735 -10.277  0.00  0.00    +0.056 C 
BRANCH   9  18
ATOM     18  C7  UNL     1      40.157  71.016 -11.962  0.00  0.00    +0.108 C 
ATOM     19  C8  UNL     1      41.454  70.267 -12.370  0.00  0.00    +0.024 C 
ATOM     20  C9  UNL     1      41.217  69.250 -13.499  0.00  0.00    +0.002 C 
ATOM     21  C10 UNL     1      40.570  67.946 -13.023  0.00  0.00    +0.000 C 
ATOM     22  C11 UNL     1      39.193  68.146 -12.375  0.00  0.00    +0.000 C 
ATOM     23  C12 UNL     1      39.297  68.747 -10.964  0.00  0.00    +0.002 C 
ATOM     24  C13 UNL     1      39.253  70.283 -10.933  0.00  0.00    +0.024 C 
ENDBRANCH   9  18
ENDBRANCH   4   7
BRANCH   1  26
ATOM     25  C1  UNL     1      38.008  74.876  -3.516  0.00  0.00    +0.253 C 
ATOM     26  O1  UNL     1      39.246  74.363  -3.998  0.00  0.00    -0.468 OA
ENDBRANCH   1  26
BRANCH   6  27
ATOM     27  O3  UNL     1      40.941  76.155  -5.158  0.00  0.00    -0.472 OA
BRANCH  27  28
ATOM     28  C23 UNL     1      42.317  76.398  -4.869  0.00  0.00    +0.206 C 
BRANCH  28  29
ATOM     29  C24 UNL     1      43.059  75.080  -4.634  0.00  0.00    +0.051 C 
BRANCH  29  30
ATOM     30  C25 UNL     1      43.278  74.823  -3.138  0.00  0.00    +0.051 C 
BRANCH  30  31
ATOM     31  C26 UNL     1      44.718  74.401  -2.849  0.00  0.00    +0.206 C 
BRANCH  31  32
ATOM     32  O4  UNL     1      44.714  73.217  -2.053  0.00  0.00    -0.475 OA
BRANCH  32  33
ATOM     33  C27 UNL     1      44.852  71.916  -2.555  0.00  0.00    +0.139 A 
ATOM     34  C28 UNL     1      45.365  71.758  -3.844  0.00  0.00    +0.037 A 
ATOM     35  C29 UNL     1      45.494  70.488  -4.409  0.00  0.00    +0.006 A 
ATOM     36  C30 UNL     1      45.126  69.340  -3.682  0.00  0.00    +0.040 A 
ATOM     37  C32 UNL     1      44.633  69.499  -2.371  0.00  0.00    +0.006 A 
ATOM     38  C33 UNL     1      44.491  70.775  -1.815  0.00  0.00    +0.037 A 
BRANCH  36  39
ATOM     39  C31 UNL     1      45.250  67.989  -4.288  0.00  0.00    +0.208 A 
ATOM     40  N3  UNL     1      45.703  67.730  -5.534  0.00  0.00    -0.106 NA
ATOM     41  N4  UNL     1      45.673  66.414  -5.660  0.00  0.00    -0.021 NA
ATOM     42  N5  UNL     1      45.218  65.872  -4.544  0.00  0.00    -0.021 NA
ATOM     43  N6  UNL     1      44.949  66.825  -3.670  0.00  0.00    -0.106 NA
ENDBRANCH  36  39
ENDBRANCH  32  33
ENDBRANCH  31  32
ENDBRANCH  30  31
ENDBRANCH  29  30
ENDBRANCH  28  29
ENDBRANCH  27  28
ENDBRANCH   6  27
TORSDOF 11
ENDMDL
