MODEL 1
REMARK VINA RESULT:      -3.8      0.000      0.000
REMARK  Name = ./data/4u7t_site_bc02/pdb/l0c0.pdb
REMARK  11 active torsions:
REMARK  status: ('A' for Active; 'I' for Inactive)
REMARK    1  A    between atoms: O1_2  and  C2_3
REMARK    2  A    between atoms: C5_6  and  C6_7
REMARK    3  A    between atoms: N2_9  and  C7_10
REMARK    4  A    between atoms: C19_23  and  O3_24
REMARK    5  A    between atoms: O3_24  and  C20_25
REMARK    6  A    between atoms: C20_25  and  C21_26
REMARK    7  A    between atoms: C21_26  and  C22_27
REMARK    8  A    between atoms: C22_27  and  C23_28
REMARK    9  A    between atoms: C23_28  and  O4_29
REMARK   10  A    between atoms: O4_29  and  C24_30
REMARK   11  A    between atoms: C27_33  and  C28_34
REMARK                            x       y       z     vdW  Elec       q    Type
REMARK                         _______ _______ _______ _____ _____    ______ ____
ROOT
ATOM      1  C2  UNL     1      20.398  80.653   7.129  0.00  0.00    +0.172 A 
ATOM      2  C3  UNL     1      19.693  79.599   7.738  0.00  0.00    +0.040 A 
ATOM      3  C4  UNL     1      18.323  79.436   7.518  0.00  0.00    +0.005 A 
ATOM      4  C5  UNL     1      17.622  80.325   6.685  0.00  0.00    +0.019 A 
ATOM      5  C18 UNL     1      18.329  81.392   6.100  0.00  0.00    +0.041 A 
ATOM      6  C19 UNL     1      19.714  81.550   6.297  0.00  0.00    +0.172 A 
ENDROOT
BRANCH   4   7
ATOM      7  C6  UNL     1      16.171  80.168   6.376  0.00  0.00    +0.086 C 
ATOM      8  N1  UNL     1      15.703  79.034   5.958  0.00  0.00    -0.171 NA
ATOM      9  N2  UNL     1      14.326  79.118   5.773  0.00  0.00    -0.222 N 
ATOM     10  C14 UNL     1      13.911  80.305   6.066  0.00  0.00    +0.257 C 
ATOM     11  O2  UNL     1      12.575  80.695   5.975  0.00  0.00    -0.270 OA
ATOM     12  C15 UNL     1      15.046  81.183   6.520  0.00  0.00    +0.110 C 
ATOM     13  C16 UNL     1      15.199  82.377   5.566  0.00  0.00    +0.015 C 
ATOM     14  C17 UNL     1      14.814  81.609   7.981  0.00  0.00    +0.015 C 
BRANCH   9  15
ATOM     15  C7  UNL     1      13.505  77.979   5.338  0.00  0.00    +0.108 C 
ATOM     16  C8  UNL     1      12.235  77.901   6.214  0.00  0.00    +0.024 C 
ATOM     17  C9  UNL     1      11.141  76.976   5.653  0.00  0.00    +0.002 C 
ATOM     18  C10 UNL     1      10.165  77.724   4.731  0.00  0.00    +0.000 C 
ATOM     19  C11 UNL     1      10.743  78.048   3.347  0.00  0.00    +0.000 C 
ATOM     20  C12 UNL     1      12.024  78.895   3.397  0.00  0.00    +0.002 C 
ATOM     21  C13 UNL     1      13.255  78.068   3.812  0.00  0.00    +0.024 C 
ENDBRANCH   9  15
ENDBRANCH   4   7
BRANCH   1  23
ATOM     22  C1  UNL     1      22.338  81.815   8.202  0.00  0.00    +0.253 C 
ATOM     23  O1  UNL     1      21.775  80.843   7.327  0.00  0.00    -0.468 OA
ENDBRANCH   1  23
BRANCH   6  24
ATOM     24  O3  UNL     1      20.446  82.583   5.683  0.00  0.00    -0.472 OA
BRANCH  24  25
ATOM     25  C20 UNL     1      20.511  83.936   6.139  0.00  0.00    +0.206 C 
BRANCH  25  26
ATOM     26  C21 UNL     1      19.439  84.799   5.459  0.00  0.00    +0.051 C 
BRANCH  26  27
ATOM     27  C22 UNL     1      18.201  84.937   6.352  0.00  0.00    +0.051 C 
BRANCH  27  28
ATOM     28  C23 UNL     1      18.574  85.495   7.730  0.00  0.00    +0.206 C 
BRANCH  28  29
ATOM     29  O4  UNL     1      17.909  86.738   7.961  0.00  0.00    -0.475 OA
BRANCH  29  30
ATOM     30  C24 UNL     1      16.526  86.895   8.152  0.00  0.00    +0.139 A 
ATOM     31  C25 UNL     1      15.568  86.271   7.331  0.00  0.00    +0.037 A 
ATOM     32  C26 UNL     1      14.202  86.463   7.565  0.00  0.00    +0.006 A 
ATOM     33  C27 UNL     1      13.766  87.277   8.625  0.00  0.00    +0.040 A 
ATOM     34  C29 UNL     1      14.726  87.894   9.445  0.00  0.00    +0.006 A 
ATOM     35  C30 UNL     1      16.092  87.703   9.208  0.00  0.00    +0.037 A 
BRANCH  33  36
ATOM     36  C28 UNL     1      12.318  87.478   8.873  0.00  0.00    +0.208 A 
ATOM     37  N3  UNL     1      11.320  87.054   8.066  0.00  0.00    -0.106 NA
ATOM     38  N4  UNL     1      10.197  87.444   8.647  0.00  0.00    -0.021 NA
ATOM     39  N5  UNL     1      10.480  88.081   9.771  0.00  0.00    -0.021 NA
ATOM     40  N6  UNL     1      11.791  88.120   9.939  0.00  0.00    -0.106 NA
ENDBRANCH  33  36
ENDBRANCH  29  30
ENDBRANCH  28  29
ENDBRANCH  27  28
ENDBRANCH  26  27
ENDBRANCH  25  26
ENDBRANCH  24  25
ENDBRANCH   6  24
TORSDOF 11
ENDMDL
MODEL 2
REMARK VINA RESULT:      -3.6      1.776      2.523
REMARK  Name = ./data/4u7t_site_bc02/pdb/l0c0.pdb
REMARK  11 active torsions:
REMARK  status: ('A' for Active; 'I' for Inactive)
REMARK    1  A    between atoms: O1_2  and  C2_3
REMARK    2  A    between atoms: C5_6  and  C6_7
REMARK    3  A    between atoms: N2_9  and  C7_10
REMARK    4  A    between atoms: C19_23  and  O3_24
REMARK    5  A    between atoms: O3_24  and  C20_25
REMARK    6  A    between atoms: C20_25  and  C21_26
REMARK    7  A    between atoms: C21_26  and  C22_27
REMARK    8  A    between atoms: C22_27  and  C23_28
REMARK    9  A    between atoms: C23_28  and  O4_29
REMARK   10  A    between atoms: O4_29  and  C24_30
REMARK   11  A    between atoms: C27_33  and  C28_34
REMARK                            x       y       z     vdW  Elec       q    Type
REMARK                         _______ _______ _______ _____ _____    ______ ____
ROOT
ATOM      1  C2  UNL     1      19.694  80.628   7.805  0.00  0.00    +0.172 A 
ATOM      2  C3  UNL     1      19.150  79.358   7.538  0.00  0.00    +0.040 A 
ATOM      3  C4  UNL     1      17.905  79.233   6.916  0.00  0.00    +0.005 A 
ATOM      4  C5  UNL     1      17.172  80.374   6.547  0.00  0.00    +0.019 A 
ATOM      5  C18 UNL     1      17.712  81.640   6.841  0.00  0.00    +0.041 A 
ATOM      6  C19 UNL     1      18.976  81.776   7.445  0.00  0.00    +0.172 A 
ENDROOT
BRANCH   4   7
ATOM      7  C6  UNL     1      15.863  80.297   5.836  0.00  0.00    +0.086 C 
ATOM      8  N1  UNL     1      15.248  81.376   5.466  0.00  0.00    -0.171 NA
ATOM      9  N2  UNL     1      14.072  81.056   4.792  0.00  0.00    -0.222 N 
ATOM     10  C14 UNL     1      13.930  79.774   4.734  0.00  0.00    +0.257 C 
ATOM     11  O2  UNL     1      12.843  79.150   4.123  0.00  0.00    -0.270 OA
ATOM     12  C15 UNL     1      15.082  79.067   5.395  0.00  0.00    +0.110 C 
ATOM     13  C16 UNL     1      14.574  78.232   6.581  0.00  0.00    +0.015 C 
ATOM     14  C17 UNL     1      15.838  78.227   4.350  0.00  0.00    +0.015 C 
BRANCH   9  15
ATOM     15  C7  UNL     1      13.176  82.070   4.219  0.00  0.00    +0.108 C 
ATOM     16  C8  UNL     1      13.356  82.102   2.685  0.00  0.00    +0.024 C 
ATOM     17  C9  UNL     1      12.249  82.868   1.939  0.00  0.00    +0.002 C 
ATOM     18  C10 UNL     1      11.080  81.953   1.539  0.00  0.00    +0.000 C 
ATOM     19  C11 UNL     1      10.166  81.567   2.708  0.00  0.00    +0.000 C 
ATOM     20  C12 UNL     1      10.898  80.853   3.855  0.00  0.00    +0.002 C 
ATOM     21  C13 UNL     1      11.728  81.826   4.713  0.00  0.00    +0.024 C 
ENDBRANCH   9  15
ENDBRANCH   4   7
BRANCH   1  23
ATOM     22  C1  UNL     1      22.194  80.740   7.745  0.00  0.00    +0.253 C 
ATOM     23  O1  UNL     1      20.944  80.789   8.425  0.00  0.00    -0.468 OA
ENDBRANCH   1  23
BRANCH   6  24
ATOM     24  O3  UNL     1      19.552  83.033   7.703  0.00  0.00    -0.472 OA
BRANCH  24  25
ATOM     25  C20 UNL     1      20.267  83.827   6.753  0.00  0.00    +0.206 C 
BRANCH  25  26
ATOM     26  C21 UNL     1      19.327  84.364   5.664  0.00  0.00    +0.051 C 
BRANCH  26  27
ATOM     27  C22 UNL     1      18.198  85.197   6.281  0.00  0.00    +0.051 C 
BRANCH  27  28
ATOM     28  C23 UNL     1      18.508  85.554   7.738  0.00  0.00    +0.206 C 
BRANCH  28  29
ATOM     29  O4  UNL     1      17.853  86.770   8.104  0.00  0.00    -0.475 OA
BRANCH  29  30
ATOM     30  C24 UNL     1      16.461  86.948   8.188  0.00  0.00    +0.139 A 
ATOM     31  C25 UNL     1      15.567  86.431   7.231  0.00  0.00    +0.037 A 
ATOM     32  C26 UNL     1      14.190  86.639   7.364  0.00  0.00    +0.006 A 
ATOM     33  C27 UNL     1      13.679  87.361   8.456  0.00  0.00    +0.040 A 
ATOM     34  C29 UNL     1      14.574  87.870   9.412  0.00  0.00    +0.006 A 
ATOM     35  C30 UNL     1      15.951  87.663   9.277  0.00  0.00    +0.037 A 
BRANCH  33  36
ATOM     36  C28 UNL     1      12.218  87.579   8.598  0.00  0.00    +0.208 A 
ATOM     37  N3  UNL     1      11.358  86.736   9.212  0.00  0.00    -0.106 NA
ATOM     38  N4  UNL     1      10.166  87.300   9.106  0.00  0.00    -0.021 NA
ATOM     39  N5  UNL     1      10.275  88.447   8.457  0.00  0.00    -0.021 NA
ATOM     40  N6  UNL     1      11.540  88.649   8.127  0.00  0.00    -0.106 NA
ENDBRANCH  33  36
ENDBRANCH  29  30
ENDBRANCH  28  29
ENDBRANCH  27  28
ENDBRANCH  26  27
ENDBRANCH  25  26
ENDBRANCH  24  25
ENDBRANCH   6  24
TORSDOF 11
ENDMDL
MODEL 3
REMARK VINA RESULT:      -1.9      1.396      2.126
REMARK  Name = ./data/4u7t_site_bc02/pdb/l0c0.pdb
REMARK  11 active torsions:
REMARK  status: ('A' for Active; 'I' for Inactive)
REMARK    1  A    between atoms: O1_2  and  C2_3
REMARK    2  A    between atoms: C5_6  and  C6_7
REMARK    3  A    between atoms: N2_9  and  C7_10
REMARK    4  A    between atoms: C19_23  and  O3_24
REMARK    5  A    between atoms: O3_24  and  C20_25
REMARK    6  A    between atoms: C20_25  and  C21_26
REMARK    7  A    between atoms: C21_26  and  C22_27
REMARK    8  A    between atoms: C22_27  and  C23_28
REMARK    9  A    between atoms: C23_28  and  O4_29
REMARK   10  A    between atoms: O4_29  and  C24_30
REMARK   11  A    between atoms: C27_33  and  C28_34
REMARK                            x       y       z     vdW  Elec       q    Type
REMARK                         _______ _______ _______ _____ _____    ______ ____
ROOT
ATOM      1  C2  UNL     1      19.673  81.063   7.185  0.00  0.00    +0.172 A 
ATOM      2  C3  UNL     1      19.193  79.864   7.743  0.00  0.00    +0.040 A 
ATOM      3  C4  UNL     1      17.907  79.404   7.447  0.00  0.00    +0.005 A 
ATOM      4  C5  UNL     1      17.068  80.133   6.588  0.00  0.00    +0.019 A 
ATOM      5  C18 UNL     1      17.545  81.345   6.054  0.00  0.00    +0.041 A 
ATOM      6  C19 UNL     1      18.848  81.803   6.328  0.00  0.00    +0.172 A 
ENDROOT
BRANCH   4   7
ATOM      7  C6  UNL     1      15.706  79.663   6.199  0.00  0.00    +0.086 C 
ATOM      8  N1  UNL     1      15.247  78.533   6.637  0.00  0.00    -0.171 NA
ATOM      9  N2  UNL     1      13.950  78.326   6.174  0.00  0.00    -0.222 N 
ATOM     10  C14 UNL     1      13.580  79.319   5.436  0.00  0.00    +0.257 C 
ATOM     11  O2  UNL     1      12.329  79.395   4.824  0.00  0.00    -0.270 OA
ATOM     12  C15 UNL     1      14.660  80.362   5.341  0.00  0.00    +0.110 C 
ATOM     13  C16 UNL     1      15.106  80.523   3.880  0.00  0.00    +0.015 C 
ATOM     14  C17 UNL     1      14.162  81.677   5.966  0.00  0.00    +0.015 C 
BRANCH   9  15
ATOM     15  C7  UNL     1      13.150  77.147   6.532  0.00  0.00    +0.108 C 
ATOM     16  C8  UNL     1      13.398  76.793   8.015  0.00  0.00    +0.024 C 
ATOM     17  C9  UNL     1      12.380  75.800   8.602  0.00  0.00    +0.002 C 
ATOM     18  C10 UNL     1      11.169  76.513   9.227  0.00  0.00    +0.000 C 
ATOM     19  C11 UNL     1      10.181  77.075   8.197  0.00  0.00    +0.000 C 
ATOM     20  C12 UNL     1      10.813  78.078   7.219  0.00  0.00    +0.002 C 
ATOM     21  C13 UNL     1      11.669  77.382   6.144  0.00  0.00    +0.024 C 
ENDBRANCH   9  15
ENDBRANCH   4   7
BRANCH   1  23
ATOM     22  C1  UNL     1      22.019  81.612   6.508  0.00  0.00    +0.253 C 
ATOM     23  O1  UNL     1      20.961  81.552   7.458  0.00  0.00    -0.468 OA
ENDBRANCH   1  23
BRANCH   6  24
ATOM     24  O3  UNL     1      19.359  82.988   5.765  0.00  0.00    -0.472 OA
BRANCH  24  25
ATOM     25  C20 UNL     1      18.788  84.289   5.917  0.00  0.00    +0.206 C 
BRANCH  25  26
ATOM     26  C21 UNL     1      18.568  84.626   7.399  0.00  0.00    +0.051 C 
BRANCH  26  27
ATOM     27  C22 UNL     1      18.644  86.139   7.632  0.00  0.00    +0.051 C 
BRANCH  27  28
ATOM     28  C23 UNL     1      18.722  86.464   9.127  0.00  0.00    +0.206 C 
BRANCH  28  29
ATOM     29  O4  UNL     1      17.920  87.606   9.432  0.00  0.00    -0.475 OA
BRANCH  29  30
ATOM     30  C24 UNL     1      16.517  87.650   9.374  0.00  0.00    +0.139 A 
ATOM     31  C25 UNL     1      15.730  88.246  10.378  0.00  0.00    +0.037 A 
ATOM     32  C26 UNL     1      14.336  88.260  10.270  0.00  0.00    +0.006 A 
ATOM     33  C27 UNL     1      13.700  87.686   9.156  0.00  0.00    +0.040 A 
ATOM     34  C29 UNL     1      14.489  87.097   8.153  0.00  0.00    +0.006 A 
ATOM     35  C30 UNL     1      15.883  87.081   8.264  0.00  0.00    +0.037 A 
BRANCH  33  36
ATOM     36  C28 UNL     1      12.221  87.703   9.041  0.00  0.00    +0.208 A 
ATOM     37  N3  UNL     1      11.390  88.484   9.768  0.00  0.00    -0.106 NA
ATOM     38  N4  UNL     1      10.167  88.182   9.361  0.00  0.00    -0.021 NA
ATOM     39  N5  UNL     1      10.231  87.257   8.419  0.00  0.00    -0.021 NA
ATOM     40  N6  UNL     1      11.495  86.938   8.197  0.00  0.00    -0.106 NA
ENDBRANCH  33  36
ENDBRANCH  29  30
ENDBRANCH  28  29
ENDBRANCH  27  28
ENDBRANCH  26  27
ENDBRANCH  25  26
ENDBRANCH  24  25
ENDBRANCH   6  24
TORSDOF 11
ENDMDL
MODEL 4
REMARK VINA RESULT:      -1.4      2.932      4.096
REMARK  Name = ./data/4u7t_site_bc02/pdb/l0c0.pdb
REMARK  11 active torsions:
REMARK  status: ('A' for Active; 'I' for Inactive)
REMARK    1  A    between atoms: O1_2  and  C2_3
REMARK    2  A    between atoms: C5_6  and  C6_7
REMARK    3  A    between atoms: N2_9  and  C7_10
REMARK    4  A    between atoms: C19_23  and  O3_24
REMARK    5  A    between atoms: O3_24  and  C20_25
REMARK    6  A    between atoms: C20_25  and  C21_26
REMARK    7  A    between atoms: C21_26  and  C22_27
REMARK    8  A    between atoms: C22_27  and  C23_28
REMARK    9  A    between atoms: C23_28  and  O4_29
REMARK   10  A    between atoms: O4_29  and  C24_30
REMARK   11  A    between atoms: C27_33  and  C28_34
REMARK                            x       y       z     vdW  Elec       q    Type
REMARK                         _______ _______ _______ _____ _____    ______ ____
ROOT
ATOM      1  C2  UNL     1      18.666  81.752   6.934  0.00  0.00    +0.172 A 
ATOM      2  C3  UNL     1      18.586  80.347   6.935  0.00  0.00    +0.040 A 
ATOM      3  C4  UNL     1      17.391  79.701   6.611  0.00  0.00    +0.005 A 
ATOM      4  C5  UNL     1      16.244  80.442   6.281  0.00  0.00    +0.019 A 
ATOM      5  C18 UNL     1      16.324  81.847   6.307  0.00  0.00    +0.041 A 
ATOM      6  C19 UNL     1      17.531  82.507   6.608  0.00  0.00    +0.172 A 
ENDROOT
BRANCH   4   7
ATOM      7  C6  UNL     1      14.957  79.803   5.878  0.00  0.00    +0.086 C 
ATOM      8  N1  UNL     1      14.121  79.382   6.773  0.00  0.00    -0.171 NA
ATOM      9  N2  UNL     1      12.982  78.860   6.164  0.00  0.00    -0.222 N 
ATOM     10  C14 UNL     1      13.091  78.941   4.880  0.00  0.00    +0.257 C 
ATOM     11  O2  UNL     1      12.108  78.494   3.998  0.00  0.00    -0.270 OA
ATOM     12  C15 UNL     1      14.393  79.582   4.482  0.00  0.00    +0.110 C 
ATOM     13  C16 UNL     1      15.230  78.596   3.654  0.00  0.00    +0.015 C 
ATOM     14  C17 UNL     1      14.112  80.901   3.740  0.00  0.00    +0.015 C 
BRANCH   9  15
ATOM     15  C7  UNL     1      11.837  78.337   6.921  0.00  0.00    +0.108 C 
ATOM     16  C8  UNL     1      11.159  77.212   6.108  0.00  0.00    +0.024 C 
ATOM     17  C9  UNL     1      10.169  76.359   6.921  0.00  0.00    +0.002 C 
ATOM     18  C10 UNL     1      10.849  75.145   7.573  0.00  0.00    +0.000 C 
ATOM     19  C11 UNL     1      11.707  75.497   8.795  0.00  0.00    +0.000 C 
ATOM     20  C12 UNL     1      12.825  76.506   8.494  0.00  0.00    +0.002 C 
ATOM     21  C13 UNL     1      12.290  77.943   8.349  0.00  0.00    +0.024 C 
ENDBRANCH   9  15
ENDBRANCH   4   7
BRANCH   1  23
ATOM     22  C1  UNL     1      21.081  81.799   7.591  0.00  0.00    +0.253 C 
ATOM     23  O1  UNL     1      19.852  82.434   7.251  0.00  0.00    -0.468 OA
ENDBRANCH   1  23
BRANCH   6  24
ATOM     24  O3  UNL     1      17.642  83.910   6.593  0.00  0.00    -0.472 OA
BRANCH  24  25
ATOM     25  C20 UNL     1      16.578  84.821   6.309  0.00  0.00    +0.206 C 
BRANCH  25  26
ATOM     26  C21 UNL     1      15.323  84.073   5.837  0.00  0.00    +0.051 C 
BRANCH  26  27
ATOM     27  C22 UNL     1      14.071  84.938   6.022  0.00  0.00    +0.051 C 
BRANCH  27  28
ATOM     28  C23 UNL     1      14.416  86.430   5.959  0.00  0.00    +0.206 C 
BRANCH  28  29
ATOM     29  O4  UNL     1      14.065  87.075   7.184  0.00  0.00    -0.475 OA
BRANCH  29  30
ATOM     30  C24 UNL     1      14.871  87.126   8.333  0.00  0.00    +0.139 A 
ATOM     31  C25 UNL     1      14.395  86.788   9.614  0.00  0.00    +0.037 A 
ATOM     32  C26 UNL     1      15.241  86.858  10.725  0.00  0.00    +0.006 A 
ATOM     33  C27 UNL     1      16.580  87.261  10.580  0.00  0.00    +0.040 A 
ATOM     34  C29 UNL     1      17.053  87.593   9.299  0.00  0.00    +0.006 A 
ATOM     35  C30 UNL     1      16.204  87.524   8.189  0.00  0.00    +0.037 A 
BRANCH  33  36
ATOM     36  C28 UNL     1      17.478  87.334  11.759  0.00  0.00    +0.208 A 
ATOM     37  N3  UNL     1      17.149  87.860  12.960  0.00  0.00    -0.106 NA
ATOM     38  N4  UNL     1      18.228  87.733  13.715  0.00  0.00    -0.021 NA
ATOM     39  N5  UNL     1      19.188  87.148  13.019  0.00  0.00    -0.021 NA
ATOM     40  N6  UNL     1      18.752  86.888  11.797  0.00  0.00    -0.106 NA
ENDBRANCH  33  36
ENDBRANCH  29  30
ENDBRANCH  28  29
ENDBRANCH  27  28
ENDBRANCH  26  27
ENDBRANCH  25  26
ENDBRANCH  24  25
ENDBRANCH   6  24
TORSDOF 11
ENDMDL
