MODEL 1
REMARK VINA RESULT:      -1.5      0.000      0.000
REMARK  Name = ./data/4u7t_site_bc02/pdb/l0c2.pdb
REMARK  11 active torsions:
REMARK  status: ('A' for Active; 'I' for Inactive)
REMARK    1  A    between atoms: O1_2  and  C2_3
REMARK    2  A    between atoms: C5_6  and  C6_7
REMARK    3  A    between atoms: N2_9  and  C7_10
REMARK    4  A    between atoms: C19_23  and  O3_24
REMARK    5  A    between atoms: O3_24  and  C20_25
REMARK    6  A    between atoms: C20_25  and  C21_26
REMARK    7  A    between atoms: C21_26  and  C22_27
REMARK    8  A    between atoms: C22_27  and  C23_28
REMARK    9  A    between atoms: C23_28  and  O4_29
REMARK   10  A    between atoms: O4_29  and  C24_30
REMARK   11  A    between atoms: C27_33  and  C28_34
REMARK                            x       y       z     vdW  Elec       q    Type
REMARK                         _______ _______ _______ _____ _____    ______ ____
ROOT
ATOM      1  C2  UNL     1      12.772  80.890   3.683  0.00  0.00    +0.172 A 
ATOM      2  C3  UNL     1      13.054  82.085   3.000  0.00  0.00    +0.040 A 
ATOM      3  C4  UNL     1      13.570  83.189   3.682  0.00  0.00    +0.005 A 
ATOM      4  C5  UNL     1      13.808  83.132   5.066  0.00  0.00    +0.019 A 
ATOM      5  C18 UNL     1      13.519  81.931   5.745  0.00  0.00    +0.041 A 
ATOM      6  C19 UNL     1      13.013  80.810   5.061  0.00  0.00    +0.172 A 
ENDROOT
BRANCH   4   7
ATOM      7  C6  UNL     1      14.359  84.292   5.830  0.00  0.00    +0.086 C 
ATOM      8  N1  UNL     1      13.590  85.258   6.222  0.00  0.00    -0.171 NA
ATOM      9  N2  UNL     1      14.327  86.199   6.938  0.00  0.00    -0.222 N 
ATOM     10  C14 UNL     1      15.563  85.825   7.017  0.00  0.00    +0.257 C 
ATOM     11  O2  UNL     1      16.541  86.546   7.701  0.00  0.00    -0.270 OA
ATOM     12  C15 UNL     1      15.791  84.533   6.287  0.00  0.00    +0.110 C 
ATOM     13  C16 UNL     1      16.289  83.460   7.268  0.00  0.00    +0.015 C 
ATOM     14  C17 UNL     1      16.761  84.775   5.117  0.00  0.00    +0.015 C 
BRANCH   9  15
ATOM     15  C7  UNL     1      13.718  87.398   7.532  0.00  0.00    +0.108 C 
ATOM     16  C8  UNL     1      12.403  87.734   6.793  0.00  0.00    +0.024 C 
ATOM     17  C9  UNL     1      11.916  89.171   7.020  0.00  0.00    +0.002 C 
ATOM     18  C10 UNL     1      11.668  89.515   8.497  0.00  0.00    +0.000 C 
ATOM     19  C11 UNL     1      12.977  89.752   9.267  0.00  0.00    +0.000 C 
ATOM     20  C12 UNL     1      13.588  88.482   9.889  0.00  0.00    +0.002 C 
ATOM     21  C13 UNL     1      13.490  87.195   9.048  0.00  0.00    +0.024 C 
ENDBRANCH   9  15
ENDBRANCH   4   7
BRANCH   1  23
ATOM     22  C1  UNL     1      10.871  79.436   2.947  0.00  0.00    +0.253 C 
ATOM     23  O1  UNL     1      12.256  79.761   3.028  0.00  0.00    -0.468 OA
ENDBRANCH   1  23
BRANCH   6  24
ATOM     24  O3  UNL     1      12.735  79.593   5.709  0.00  0.00    -0.472 OA
BRANCH  24  25
ATOM     25  C20 UNL     1      13.657  78.831   6.489  0.00  0.00    +0.206 C 
BRANCH  25  26
ATOM     26  C21 UNL     1      14.559  77.982   5.582  0.00  0.00    +0.051 C 
BRANCH  26  27
ATOM     27  C22 UNL     1      15.771  78.767   5.058  0.00  0.00    +0.051 C 
BRANCH  27  28
ATOM     28  C23 UNL     1      16.251  79.836   6.048  0.00  0.00    +0.206 C 
BRANCH  28  29
ATOM     29  O4  UNL     1      17.371  79.357   6.792  0.00  0.00    -0.475 OA
BRANCH  29  30
ATOM     30  C24 UNL     1      18.581  80.046   6.977  0.00  0.00    +0.139 A 
ATOM     31  C25 UNL     1      19.698  79.471   7.614  0.00  0.00    +0.037 A 
ATOM     32  C26 UNL     1      20.879  80.204   7.766  0.00  0.00    +0.006 A 
ATOM     33  C27 UNL     1      20.971  81.522   7.285  0.00  0.00    +0.040 A 
ATOM     34  C29 UNL     1      19.853  82.090   6.651  0.00  0.00    +0.006 A 
ATOM     35  C30 UNL     1      18.673  81.357   6.500  0.00  0.00    +0.037 A 
BRANCH  33  36
ATOM     36  C28 UNL     1      22.228  82.296   7.440  0.00  0.00    +0.208 A 
ATOM     37  N3  UNL     1      23.095  82.177   8.469  0.00  0.00    -0.106 NA
ATOM     38  N4  UNL     1      24.066  83.041   8.223  0.00  0.00    -0.021 NA
ATOM     39  N5  UNL     1      23.818  83.672   7.089  0.00  0.00    -0.021 NA
ATOM     40  N6  UNL     1      22.681  83.232   6.578  0.00  0.00    -0.106 NA
ENDBRANCH  33  36
ENDBRANCH  29  30
ENDBRANCH  28  29
ENDBRANCH  27  28
ENDBRANCH  26  27
ENDBRANCH  25  26
ENDBRANCH  24  25
ENDBRANCH   6  24
TORSDOF 11
ENDMDL
