MODEL 1
REMARK VINA RESULT:      -6.5      0.000      0.000
REMARK  Name = ./data/4u7t_site_bc02/pdb/l1c0.pdb
REMARK  11 active torsions:
REMARK  status: ('A' for Active; 'I' for Inactive)
REMARK    1  A    between atoms: O1_2  and  C2_3
REMARK    2  A    between atoms: C5_6  and  C6_7
REMARK    3  A    between atoms: N2_9  and  C7_10
REMARK    4  A    between atoms: C22_26  and  O3_27
REMARK    5  A    between atoms: O3_27  and  C23_28
REMARK    6  A    between atoms: C23_28  and  C24_29
REMARK    7  A    between atoms: C24_29  and  C25_30
REMARK    8  A    between atoms: C25_30  and  C26_31
REMARK    9  A    between atoms: C26_31  and  O4_32
REMARK   10  A    between atoms: O4_32  and  C27_33
REMARK   11  A    between atoms: C30_36  and  C31_37
REMARK                            x       y       z     vdW  Elec       q    Type
REMARK                         _______ _______ _______ _____ _____    ______ ____
ROOT
ATOM      1  C2  UNL     1      35.596  95.726 -11.308  0.00  0.00    +0.172 A 
ATOM      2  C3  UNL     1      34.722  96.151 -12.322  0.00  0.00    +0.040 A 
ATOM      3  C4  UNL     1      34.125  97.410 -12.259  0.00  0.00    +0.005 A 
ATOM      4  C5  UNL     1      34.389  98.282 -11.188  0.00  0.00    +0.018 A 
ATOM      5  C21 UNL     1      35.277  97.857 -10.181  0.00  0.00    +0.041 A 
ATOM      6  C22 UNL     1      35.865  96.575 -10.225  0.00  0.00    +0.172 A 
ENDROOT
BRANCH   4   7
ATOM      7  C6  UNL     1      33.734  99.626 -11.146  0.00  0.00    +0.079 C 
ATOM      8  N1  UNL     1      34.481 100.679 -10.994  0.00  0.00    -0.172 NA
ATOM      9  N2  UNL     1      33.989 101.999 -10.938  0.00  0.00    -0.222 N 
ATOM     10  C14 UNL     1      32.758 102.276 -11.307  0.00  0.00    +0.253 C 
ATOM     11  O2  UNL     1      32.327 103.606 -11.338  0.00  0.00    -0.271 OA
ATOM     12  C15 UNL     1      31.833 101.162 -11.783  0.00  0.00    +0.091 C 
ATOM     13  C16 UNL     1      30.346 101.430 -11.473  0.00  0.00    +0.035 C 
ATOM     14  C17 UNL     1      30.153 101.523  -9.989  0.00  0.00    -0.030 C 
ATOM     15  C18 UNL     1      30.788 100.665  -9.181  0.00  0.00    -0.030 C 
ATOM     16  C19 UNL     1      31.639  99.543  -9.730  0.00  0.00    +0.032 C 
ATOM     17  C20 UNL     1      32.229  99.793 -11.159  0.00  0.00    +0.056 C 
BRANCH   9  18
ATOM     18  C7  UNL     1      34.949 103.044 -10.522  0.00  0.00    +0.108 C 
ATOM     19  C8  UNL     1      34.857 103.311  -8.996  0.00  0.00    +0.024 C 
ATOM     20  C9  UNL     1      35.182 104.768  -8.631  0.00  0.00    +0.002 C 
ATOM     21  C10 UNL     1      36.682 105.081  -8.633  0.00  0.00    +0.000 C 
ATOM     22  C11 UNL     1      37.353 104.854  -9.994  0.00  0.00    +0.000 C 
ATOM     23  C12 UNL     1      37.545 103.361 -10.305  0.00  0.00    +0.002 C 
ATOM     24  C13 UNL     1      36.369 102.725 -11.064  0.00  0.00    +0.024 C 
ENDBRANCH   9  18
ENDBRANCH   4   7
BRANCH   1  26
ATOM     25  C1  UNL     1      35.567  93.243 -11.009  0.00  0.00    +0.253 C 
ATOM     26  O1  UNL     1      36.217  94.467 -11.337  0.00  0.00    -0.468 OA
ENDBRANCH   1  26
BRANCH   6  27
ATOM     27  O3  UNL     1      36.724  96.105  -9.217  0.00  0.00    -0.472 OA
BRANCH  27  28
ATOM     28  C23 UNL     1      37.710  96.878  -8.534  0.00  0.00    +0.206 C 
BRANCH  28  29
ATOM     29  C24 UNL     1      37.240  97.223  -7.119  0.00  0.00    +0.051 C 
BRANCH  29  30
ATOM     30  C25 UNL     1      37.326  98.732  -6.856  0.00  0.00    +0.051 C 
BRANCH  30  31
ATOM     31  C26 UNL     1      36.102  99.236  -6.092  0.00  0.00    +0.206 C 
BRANCH  31  32
ATOM     32  O4  UNL     1      35.006  99.376  -6.995  0.00  0.00    -0.475 OA
BRANCH  32  33
ATOM     33  C27 UNL     1      33.774  98.722  -6.863  0.00  0.00    +0.139 A 
ATOM     34  C28 UNL     1      32.736  99.396  -6.216  0.00  0.00    +0.037 A 
ATOM     35  C29 UNL     1      31.497  98.783  -6.026  0.00  0.00    +0.006 A 
ATOM     36  C30 UNL     1      31.263  97.477  -6.501  0.00  0.00    +0.040 A 
ATOM     37  C32 UNL     1      32.303  96.808  -7.176  0.00  0.00    +0.006 A 
ATOM     38  C33 UNL     1      33.548  97.421  -7.350  0.00  0.00    +0.037 A 
BRANCH  36  39
ATOM     39  C31 UNL     1      29.949  96.819  -6.287  0.00  0.00    +0.208 A 
ATOM     40  N3  UNL     1      28.745  97.419  -6.404  0.00  0.00    -0.106 NA
ATOM     41  N4  UNL     1      27.849  96.480  -6.155  0.00  0.00    -0.021 NA
ATOM     42  N5  UNL     1      28.464  95.341  -5.889  0.00  0.00    -0.021 NA
ATOM     43  N6  UNL     1      29.770  95.517  -5.965  0.00  0.00    -0.106 NA
ENDBRANCH  36  39
ENDBRANCH  32  33
ENDBRANCH  31  32
ENDBRANCH  30  31
ENDBRANCH  29  30
ENDBRANCH  28  29
ENDBRANCH  27  28
ENDBRANCH   6  27
TORSDOF 11
ENDMDL
MODEL 2
REMARK VINA RESULT:      -6.5      1.458      3.854
REMARK  Name = ./data/4u7t_site_bc02/pdb/l1c0.pdb
REMARK  11 active torsions:
REMARK  status: ('A' for Active; 'I' for Inactive)
REMARK    1  A    between atoms: O1_2  and  C2_3
REMARK    2  A    between atoms: C5_6  and  C6_7
REMARK    3  A    between atoms: N2_9  and  C7_10
REMARK    4  A    between atoms: C22_26  and  O3_27
REMARK    5  A    between atoms: O3_27  and  C23_28
REMARK    6  A    between atoms: C23_28  and  C24_29
REMARK    7  A    between atoms: C24_29  and  C25_30
REMARK    8  A    between atoms: C25_30  and  C26_31
REMARK    9  A    between atoms: C26_31  and  O4_32
REMARK   10  A    between atoms: O4_32  and  C27_33
REMARK   11  A    between atoms: C30_36  and  C31_37
REMARK                            x       y       z     vdW  Elec       q    Type
REMARK                         _______ _______ _______ _____ _____    ______ ____
ROOT
ATOM      1  C2  UNL     1      35.956  96.015 -10.864  0.00  0.00    +0.172 A 
ATOM      2  C3  UNL     1      34.679  96.597 -10.908  0.00  0.00    +0.040 A 
ATOM      3  C4  UNL     1      34.506  97.947 -10.603  0.00  0.00    +0.005 A 
ATOM      4  C5  UNL     1      35.603  98.755 -10.253  0.00  0.00    +0.018 A 
ATOM      5  C21 UNL     1      36.883  98.170 -10.224  0.00  0.00    +0.041 A 
ATOM      6  C22 UNL     1      37.062  96.799 -10.506  0.00  0.00    +0.172 A 
ENDROOT
BRANCH   4   7
ATOM      7  C6  UNL     1      35.388 100.200  -9.930  0.00  0.00    +0.079 C 
ATOM      8  N1  UNL     1      34.171 100.653  -9.881  0.00  0.00    -0.172 NA
ATOM      9  N2  UNL     1      33.834 101.991  -9.588  0.00  0.00    -0.222 N 
ATOM     10  C14 UNL     1      34.724 102.813  -9.078  0.00  0.00    +0.253 C 
ATOM     11  O2  UNL     1      34.338 104.105  -8.703  0.00  0.00    -0.271 OA
ATOM     12  C15 UNL     1      36.147 102.335  -8.816  0.00  0.00    +0.091 C 
ATOM     13  C16 UNL     1      37.200 103.454  -8.949  0.00  0.00    +0.035 C 
ATOM     14  C17 UNL     1      37.193 103.984 -10.351  0.00  0.00    -0.030 C 
ATOM     15  C18 UNL     1      37.087 103.136 -11.382  0.00  0.00    -0.030 C 
ATOM     16  C19 UNL     1      37.054 101.639 -11.175  0.00  0.00    +0.032 C 
ATOM     17  C20 UNL     1      36.538 101.173  -9.772  0.00  0.00    +0.056 C 
BRANCH   9  18
ATOM     18  C7  UNL     1      32.425 102.380  -9.811  0.00  0.00    +0.108 C 
ATOM     19  C8  UNL     1      32.264 103.151 -11.149  0.00  0.00    +0.024 C 
ATOM     20  C9  UNL     1      31.134 104.192 -11.098  0.00  0.00    +0.002 C 
ATOM     21  C10 UNL     1      29.735 103.584 -11.237  0.00  0.00    +0.000 C 
ATOM     22  C11 UNL     1      29.393 102.574 -10.134  0.00  0.00    +0.000 C 
ATOM     23  C12 UNL     1      30.122 101.234 -10.327  0.00  0.00    +0.002 C 
ATOM     24  C13 UNL     1      31.486 101.157  -9.623  0.00  0.00    +0.024 C 
ENDBRANCH   9  18
ENDBRANCH   4   7
BRANCH   1  26
ATOM     25  C1  UNL     1      36.041  93.598 -10.226  0.00  0.00    +0.253 C 
ATOM     26  O1  UNL     1      36.169  94.661 -11.166  0.00  0.00    -0.468 OA
ENDBRANCH   1  26
BRANCH   6  27
ATOM     27  O3  UNL     1      38.320  96.175 -10.448  0.00  0.00    -0.472 OA
BRANCH  27  28
ATOM     28  C23 UNL     1      39.184  96.144  -9.313  0.00  0.00    +0.206 C 
BRANCH  28  29
ATOM     29  C24 UNL     1      38.498  95.450  -8.132  0.00  0.00    +0.051 C 
BRANCH  29  30
ATOM     30  C25 UNL     1      37.922  96.472  -7.145  0.00  0.00    +0.051 C 
BRANCH  30  31
ATOM     31  C26 UNL     1      36.425  96.253  -6.925  0.00  0.00    +0.206 C 
BRANCH  31  32
ATOM     32  O4  UNL     1      35.750  97.509  -6.977  0.00  0.00    -0.475 OA
BRANCH  32  33
ATOM     33  C27 UNL     1      34.358  97.670  -6.946  0.00  0.00    +0.139 A 
ATOM     34  C28 UNL     1      33.560  96.559  -7.225  0.00  0.00    +0.037 A 
ATOM     35  C29 UNL     1      32.169  96.667  -7.242  0.00  0.00    +0.006 A 
ATOM     36  C30 UNL     1      31.542  97.897  -6.959  0.00  0.00    +0.040 A 
ATOM     37  C32 UNL     1      32.349  99.011  -6.653  0.00  0.00    +0.006 A 
ATOM     38  C33 UNL     1      33.743  98.901  -6.652  0.00  0.00    +0.037 A 
BRANCH  36  39
ATOM     39  C31 UNL     1      30.062  98.016  -6.991  0.00  0.00    +0.208 A 
ATOM     40  N3  UNL     1      29.201  97.252  -6.284  0.00  0.00    -0.106 NA
ATOM     41  N4  UNL     1      27.993  97.700  -6.583  0.00  0.00    -0.021 NA
ATOM     42  N5  UNL     1      28.093  98.699  -7.444  0.00  0.00    -0.021 NA
ATOM     43  N6  UNL     1      29.366  98.921  -7.715  0.00  0.00    -0.106 NA
ENDBRANCH  36  39
ENDBRANCH  32  33
ENDBRANCH  31  32
ENDBRANCH  30  31
ENDBRANCH  29  30
ENDBRANCH  28  29
ENDBRANCH  27  28
ENDBRANCH   6  27
TORSDOF 11
ENDMDL
MODEL 3
REMARK VINA RESULT:      -6.0      2.229      4.665
REMARK  Name = ./data/4u7t_site_bc02/pdb/l1c0.pdb
REMARK  11 active torsions:
REMARK  status: ('A' for Active; 'I' for Inactive)
REMARK    1  A    between atoms: O1_2  and  C2_3
REMARK    2  A    between atoms: C5_6  and  C6_7
REMARK    3  A    between atoms: N2_9  and  C7_10
REMARK    4  A    between atoms: C22_26  and  O3_27
REMARK    5  A    between atoms: O3_27  and  C23_28
REMARK    6  A    between atoms: C23_28  and  C24_29
REMARK    7  A    between atoms: C24_29  and  C25_30
REMARK    8  A    between atoms: C25_30  and  C26_31
REMARK    9  A    between atoms: C26_31  and  O4_32
REMARK   10  A    between atoms: O4_32  and  C27_33
REMARK   11  A    between atoms: C30_36  and  C31_37
REMARK                            x       y       z     vdW  Elec       q    Type
REMARK                         _______ _______ _______ _____ _____    ______ ____
ROOT
ATOM      1  C2  UNL     1      36.074  95.040 -11.695  0.00  0.00    +0.172 A 
ATOM      2  C3  UNL     1      34.850  95.462 -11.152  0.00  0.00    +0.040 A 
ATOM      3  C4  UNL     1      34.699  96.766 -10.679  0.00  0.00    +0.005 A 
ATOM      4  C5  UNL     1      35.761  97.686 -10.742  0.00  0.00    +0.018 A 
ATOM      5  C21 UNL     1      36.982  97.261 -11.300  0.00  0.00    +0.041 A 
ATOM      6  C22 UNL     1      37.150  95.937 -11.757  0.00  0.00    +0.172 A 
ENDROOT
BRANCH   4   7
ATOM      7  C6  UNL     1      35.571  99.076 -10.226  0.00  0.00    +0.079 C 
ATOM      8  N1  UNL     1      34.365  99.482  -9.958  0.00  0.00    -0.172 NA
ATOM      9  N2  UNL     1      34.051 100.767  -9.468  0.00  0.00    -0.222 N 
ATOM     10  C14 UNL     1      34.990 101.555  -8.994  0.00  0.00    +0.253 C 
ATOM     11  O2  UNL     1      34.640 102.782  -8.422  0.00  0.00    -0.271 OA
ATOM     12  C15 UNL     1      36.444 101.096  -8.987  0.00  0.00    +0.091 C 
ATOM     13  C16 UNL     1      37.450 102.256  -9.133  0.00  0.00    +0.035 C 
ATOM     14  C17 UNL     1      37.238 102.940 -10.449  0.00  0.00    -0.030 C 
ATOM     15  C18 UNL     1      37.001 102.211 -11.548  0.00  0.00    -0.030 C 
ATOM     16  C19 UNL     1      37.022 100.700 -11.514  0.00  0.00    +0.032 C 
ATOM     17  C20 UNL     1      36.715 100.062 -10.117  0.00  0.00    +0.056 C 
BRANCH   9  18
ATOM     18  C7  UNL     1      32.619 101.133  -9.449  0.00  0.00    +0.108 C 
ATOM     19  C8  UNL     1      32.315 102.255 -10.478  0.00  0.00    +0.024 C 
ATOM     20  C9  UNL     1      31.171 103.176 -10.026  0.00  0.00    +0.002 C 
ATOM     21  C10 UNL     1      29.780 102.567 -10.225  0.00  0.00    +0.000 C 
ATOM     22  C11 UNL     1      29.566 101.261  -9.449  0.00  0.00    +0.000 C 
ATOM     23  C12 UNL     1      30.305 100.076 -10.092  0.00  0.00    +0.002 C 
ATOM     24  C13 UNL     1      31.730  99.864  -9.557  0.00  0.00    +0.024 C 
ENDBRANCH   9  18
ENDBRANCH   4   7
BRANCH   1  26
ATOM     25  C1  UNL     1      35.556  92.593 -11.715  0.00  0.00    +0.253 C 
ATOM     26  O1  UNL     1      36.264  93.737 -12.182  0.00  0.00    -0.468 OA
ENDBRANCH   1  26
BRANCH   6  27
ATOM     27  O3  UNL     1      38.367  95.469 -12.283  0.00  0.00    -0.472 OA
BRANCH  27  28
ATOM     28  C23 UNL     1      39.210  94.484 -11.688  0.00  0.00    +0.206 C 
BRANCH  28  29
ATOM     29  C24 UNL     1      39.386  94.758 -10.192  0.00  0.00    +0.051 C 
BRANCH  29  30
ATOM     30  C25 UNL     1      39.002  93.533  -9.353  0.00  0.00    +0.051 C 
BRANCH  30  31
ATOM     31  C26 UNL     1      38.758  93.911  -7.892  0.00  0.00    +0.206 C 
BRANCH  31  32
ATOM     32  O4  UNL     1      38.600  95.325  -7.790  0.00  0.00    -0.475 OA
BRANCH  32  33
ATOM     33  C27 UNL     1      37.388  95.977  -7.527  0.00  0.00    +0.139 A 
ATOM     34  C28 UNL     1      37.430  97.326  -7.169  0.00  0.00    +0.037 A 
ATOM     35  C29 UNL     1      36.257  98.019  -6.863  0.00  0.00    +0.006 A 
ATOM     36  C30 UNL     1      35.006  97.375  -6.929  0.00  0.00    +0.040 A 
ATOM     37  C32 UNL     1      34.964  96.020  -7.316  0.00  0.00    +0.006 A 
ATOM     38  C33 UNL     1      36.143  95.326  -7.606  0.00  0.00    +0.037 A 
BRANCH  36  39
ATOM     39  C31 UNL     1      33.759  98.108  -6.590  0.00  0.00    +0.208 A 
ATOM     40  N3  UNL     1      32.505  97.635  -6.753  0.00  0.00    -0.106 NA
ATOM     41  N4  UNL     1      31.701  98.587  -6.310  0.00  0.00    -0.021 NA
ATOM     42  N5  UNL     1      32.420  99.613  -5.891  0.00  0.00    -0.021 NA
ATOM     43  N6  UNL     1      33.704  99.346  -6.049  0.00  0.00    -0.106 NA
ENDBRANCH  36  39
ENDBRANCH  32  33
ENDBRANCH  31  32
ENDBRANCH  30  31
ENDBRANCH  29  30
ENDBRANCH  28  29
ENDBRANCH  27  28
ENDBRANCH   6  27
TORSDOF 11
ENDMDL
MODEL 4
REMARK VINA RESULT:      -5.7      2.885      6.294
REMARK  Name = ./data/4u7t_site_bc02/pdb/l1c0.pdb
REMARK  11 active torsions:
REMARK  status: ('A' for Active; 'I' for Inactive)
REMARK    1  A    between atoms: O1_2  and  C2_3
REMARK    2  A    between atoms: C5_6  and  C6_7
REMARK    3  A    between atoms: N2_9  and  C7_10
REMARK    4  A    between atoms: C22_26  and  O3_27
REMARK    5  A    between atoms: O3_27  and  C23_28
REMARK    6  A    between atoms: C23_28  and  C24_29
REMARK    7  A    between atoms: C24_29  and  C25_30
REMARK    8  A    between atoms: C25_30  and  C26_31
REMARK    9  A    between atoms: C26_31  and  O4_32
REMARK   10  A    between atoms: O4_32  and  C27_33
REMARK   11  A    between atoms: C30_36  and  C31_37
REMARK                            x       y       z     vdW  Elec       q    Type
REMARK                         _______ _______ _______ _____ _____    ______ ____
ROOT
ATOM      1  C2  UNL     1      36.382  93.293 -10.860  0.00  0.00    +0.172 A 
ATOM      2  C3  UNL     1      35.020  93.492 -10.577  0.00  0.00    +0.040 A 
ATOM      3  C4  UNL     1      34.614  94.550  -9.765  0.00  0.00    +0.005 A 
ATOM      4  C5  UNL     1      35.552  95.443  -9.218  0.00  0.00    +0.018 A 
ATOM      5  C21 UNL     1      36.915  95.248  -9.516  0.00  0.00    +0.041 A 
ATOM      6  C22 UNL     1      37.336  94.165 -10.316  0.00  0.00    +0.172 A 
ENDROOT
BRANCH   4   7
ATOM      7  C6  UNL     1      35.088  96.569  -8.350  0.00  0.00    +0.079 C 
ATOM      8  N1  UNL     1      33.810  96.744  -8.186  0.00  0.00    -0.172 NA
ATOM      9  N2  UNL     1      33.245  97.765  -7.395  0.00  0.00    -0.222 N 
ATOM     10  C14 UNL     1      33.983  98.450  -6.550  0.00  0.00    +0.253 C 
ATOM     11  O2  UNL     1      33.379  99.387  -5.705  0.00  0.00    -0.271 OA
ATOM     12  C15 UNL     1      35.475  98.161  -6.428  0.00  0.00    +0.091 C 
ATOM     13  C16 UNL     1      36.305  99.402  -6.041  0.00  0.00    +0.035 C 
ATOM     14  C17 UNL     1      36.171 100.447  -7.107  0.00  0.00    -0.030 C 
ATOM     15  C18 UNL     1      36.196 100.089  -8.397  0.00  0.00    -0.030 C 
ATOM     16  C19 UNL     1      36.438  98.657  -8.816  0.00  0.00    +0.032 C 
ATOM     17  C20 UNL     1      36.047  97.577  -7.752  0.00  0.00    +0.056 C 
BRANCH   9  18
ATOM     18  C7  UNL     1      31.784  97.960  -7.516  0.00  0.00    +0.108 C 
ATOM     19  C8  UNL     1      31.067  97.657  -6.172  0.00  0.00    +0.024 C 
ATOM     20  C9  UNL     1      29.650  97.097  -6.373  0.00  0.00    +0.002 C 
ATOM     21  C10 UNL     1      28.613  98.168  -6.728  0.00  0.00    +0.000 C 
ATOM     22  C11 UNL     1      28.929  98.921  -8.027  0.00  0.00    +0.000 C 
ATOM     23  C12 UNL     1      30.079  99.926  -7.850  0.00  0.00    +0.002 C 
ATOM     24  C13 UNL     1      31.469  99.343  -8.148  0.00  0.00    +0.024 C 
ENDBRANCH   9  18
ENDBRANCH   4   7
BRANCH   1  26
ATOM     25  C1  UNL     1      35.972  91.303 -12.318  0.00  0.00    +0.253 C 
ATOM     26  O1  UNL     1      36.829  92.240 -11.673  0.00  0.00    -0.468 OA
ENDBRANCH   1  26
BRANCH   6  27
ATOM     27  O3  UNL     1      38.690  93.918 -10.600  0.00  0.00    -0.472 OA
BRANCH  27  28
ATOM     28  C23 UNL     1      39.675  94.909 -10.891  0.00  0.00    +0.206 C 
BRANCH  28  29
ATOM     29  C24 UNL     1      39.279  95.715 -12.131  0.00  0.00    +0.051 C 
BRANCH  29  30
ATOM     30  C25 UNL     1      39.838  97.142 -12.070  0.00  0.00    +0.051 C 
BRANCH  30  31
ATOM     31  C26 UNL     1      38.725  98.169 -11.867  0.00  0.00    +0.206 C 
BRANCH  31  32
ATOM     32  O4  UNL     1      37.492  97.631 -12.342  0.00  0.00    -0.475 OA
BRANCH  32  33
ATOM     33  C27 UNL     1      36.240  98.239 -12.183  0.00  0.00    +0.139 A 
ATOM     34  C28 UNL     1      36.176  99.634 -12.215  0.00  0.00    +0.037 A 
ATOM     35  C29 UNL     1      34.962 100.296 -12.029  0.00  0.00    +0.006 A 
ATOM     36  C30 UNL     1      33.773  99.570 -11.824  0.00  0.00    +0.040 A 
ATOM     37  C32 UNL     1      33.835  98.162 -11.817  0.00  0.00    +0.006 A 
ATOM     38  C33 UNL     1      35.057  97.503 -11.989  0.00  0.00    +0.037 A 
BRANCH  36  39
ATOM     39  C31 UNL     1      32.483 100.275 -11.612  0.00  0.00    +0.208 A 
ATOM     40  N3  UNL     1      31.266  99.801 -11.957  0.00  0.00    -0.106 NA
ATOM     41  N4  UNL     1      30.399 100.722 -11.574  0.00  0.00    -0.021 NA
ATOM     42  N5  UNL     1      31.044 101.732 -11.017  0.00  0.00    -0.021 NA
ATOM     43  N6  UNL     1      32.341 101.483 -11.022  0.00  0.00    -0.106 NA
ENDBRANCH  36  39
ENDBRANCH  32  33
ENDBRANCH  31  32
ENDBRANCH  30  31
ENDBRANCH  29  30
ENDBRANCH  28  29
ENDBRANCH  27  28
ENDBRANCH   6  27
TORSDOF 11
ENDMDL
MODEL 5
REMARK VINA RESULT:      -5.1      3.719      7.513
REMARK  Name = ./data/4u7t_site_bc02/pdb/l1c0.pdb
REMARK  11 active torsions:
REMARK  status: ('A' for Active; 'I' for Inactive)
REMARK    1  A    between atoms: O1_2  and  C2_3
REMARK    2  A    between atoms: C5_6  and  C6_7
REMARK    3  A    between atoms: N2_9  and  C7_10
REMARK    4  A    between atoms: C22_26  and  O3_27
REMARK    5  A    between atoms: O3_27  and  C23_28
REMARK    6  A    between atoms: C23_28  and  C24_29
REMARK    7  A    between atoms: C24_29  and  C25_30
REMARK    8  A    between atoms: C25_30  and  C26_31
REMARK    9  A    between atoms: C26_31  and  O4_32
REMARK   10  A    between atoms: O4_32  and  C27_33
REMARK   11  A    between atoms: C30_36  and  C31_37
REMARK                            x       y       z     vdW  Elec       q    Type
REMARK                         _______ _______ _______ _____ _____    ______ ____
ROOT
ATOM      1  C2  UNL     1      31.468  97.209  -6.881  0.00  0.00    +0.172 A 
ATOM      2  C3  UNL     1      32.058  95.961  -7.144  0.00  0.00    +0.040 A 
ATOM      3  C4  UNL     1      33.422  95.869  -7.419  0.00  0.00    +0.005 A 
ATOM      4  C5  UNL     1      34.237  97.015  -7.433  0.00  0.00    +0.018 A 
ATOM      5  C21 UNL     1      33.643  98.261  -7.155  0.00  0.00    +0.041 A 
ATOM      6  C22 UNL     1      32.259  98.366  -6.901  0.00  0.00    +0.172 A 
ENDROOT
BRANCH   4   7
ATOM      7  C6  UNL     1      35.696  96.885  -7.732  0.00  0.00    +0.079 C 
ATOM      8  N1  UNL     1      36.306  97.882  -8.303  0.00  0.00    -0.172 NA
ATOM      9  N2  UNL     1      37.676  97.886  -8.637  0.00  0.00    -0.222 N 
ATOM     10  C14 UNL     1      38.492  96.979  -8.148  0.00  0.00    +0.253 C 
ATOM     11  O2  UNL     1      39.863  97.066  -8.415  0.00  0.00    -0.271 OA
ATOM     12  C15 UNL     1      37.961  95.890  -7.224  0.00  0.00    +0.091 C 
ATOM     13  C16 UNL     1      38.745  94.567  -7.328  0.00  0.00    +0.035 C 
ATOM     14  C17 UNL     1      38.627  94.023  -8.720  0.00  0.00    -0.030 C 
ATOM     15  C18 UNL     1      37.449  94.072  -9.355  0.00  0.00    -0.030 C 
ATOM     16  C19 UNL     1      36.204  94.593  -8.675  0.00  0.00    +0.032 C 
ATOM     17  C20 UNL     1      36.459  95.598  -7.501  0.00  0.00    +0.056 C 
BRANCH   9  18
ATOM     18  C7  UNL     1      38.142  98.999  -9.492  0.00  0.00    +0.108 C 
ATOM     19  C8  UNL     1      38.176  98.579 -10.986  0.00  0.00    +0.024 C 
ATOM     20  C9  UNL     1      39.286  99.294 -11.774  0.00  0.00    +0.002 C 
ATOM     21  C10 UNL     1      38.938 100.737 -12.150  0.00  0.00    +0.000 C 
ATOM     22  C11 UNL     1      38.671 101.639 -10.938  0.00  0.00    +0.000 C 
ATOM     23  C12 UNL     1      37.305 101.354 -10.293  0.00  0.00    +0.002 C 
ATOM     24  C13 UNL     1      37.348 100.297  -9.178  0.00  0.00    +0.024 C 
ENDBRANCH   9  18
ENDBRANCH   4   7
BRANCH   1  26
ATOM     25  C1  UNL     1      29.427  96.665  -5.542  0.00  0.00    +0.253 C 
ATOM     26  O1  UNL     1      30.100  97.342  -6.599  0.00  0.00    -0.468 OA
ENDBRANCH   1  26
BRANCH   6  27
ATOM     27  O3  UNL     1      31.629  99.599  -6.659  0.00  0.00    -0.472 OA
BRANCH  27  28
ATOM     28  C23 UNL     1      31.588 100.706  -7.558  0.00  0.00    +0.206 C 
BRANCH  28  29
ATOM     29  C24 UNL     1      31.636 100.223  -9.010  0.00  0.00    +0.051 C 
BRANCH  29  30
ATOM     30  C25 UNL     1      32.868 100.772  -9.739  0.00  0.00    +0.051 C 
BRANCH  30  31
ATOM     31  C26 UNL     1      32.533 101.177 -11.174  0.00  0.00    +0.206 C 
BRANCH  31  32
ATOM     32  O4  UNL     1      32.157 102.553 -11.202  0.00  0.00    -0.475 OA
BRANCH  32  33
ATOM     33  C27 UNL     1      30.836 103.021 -11.224  0.00  0.00    +0.139 A 
ATOM     34  C28 UNL     1      30.389 103.784 -10.143  0.00  0.00    +0.037 A 
ATOM     35  C29 UNL     1      29.074 104.248 -10.095  0.00  0.00    +0.006 A 
ATOM     36  C30 UNL     1      28.177 103.972 -11.145  0.00  0.00    +0.040 A 
ATOM     37  C32 UNL     1      28.638 103.224 -12.247  0.00  0.00    +0.006 A 
ATOM     38  C33 UNL     1      29.952 102.748 -12.284  0.00  0.00    +0.037 A 
BRANCH  36  39
ATOM     39  C31 UNL     1      26.773 104.455 -11.087  0.00  0.00    +0.208 A 
ATOM     40  N3  UNL     1      26.008 104.766 -12.156  0.00  0.00    -0.106 NA
ATOM     41  N4  UNL     1      24.835 105.125 -11.666  0.00  0.00    -0.021 NA
ATOM     42  N5  UNL     1      24.863 105.047 -10.347  0.00  0.00    -0.021 NA
ATOM     43  N6  UNL     1      26.054 104.631  -9.956  0.00  0.00    -0.106 NA
ENDBRANCH  36  39
ENDBRANCH  32  33
ENDBRANCH  31  32
ENDBRANCH  30  31
ENDBRANCH  29  30
ENDBRANCH  28  29
ENDBRANCH  27  28
ENDBRANCH   6  27
TORSDOF 11
ENDMDL
MODEL 6
REMARK VINA RESULT:      -4.9      3.157      7.960
REMARK  Name = ./data/4u7t_site_bc02/pdb/l1c0.pdb
REMARK  11 active torsions:
REMARK  status: ('A' for Active; 'I' for Inactive)
REMARK    1  A    between atoms: O1_2  and  C2_3
REMARK    2  A    between atoms: C5_6  and  C6_7
REMARK    3  A    between atoms: N2_9  and  C7_10
REMARK    4  A    between atoms: C22_26  and  O3_27
REMARK    5  A    between atoms: O3_27  and  C23_28
REMARK    6  A    between atoms: C23_28  and  C24_29
REMARK    7  A    between atoms: C24_29  and  C25_30
REMARK    8  A    between atoms: C25_30  and  C26_31
REMARK    9  A    between atoms: C26_31  and  O4_32
REMARK   10  A    between atoms: O4_32  and  C27_33
REMARK   11  A    between atoms: C30_36  and  C31_37
REMARK                            x       y       z     vdW  Elec       q    Type
REMARK                         _______ _______ _______ _____ _____    ______ ____
ROOT
ATOM      1  C2  UNL     1      30.941  97.243  -6.834  0.00  0.00    +0.172 A 
ATOM      2  C3  UNL     1      31.585  96.000  -6.726  0.00  0.00    +0.040 A 
ATOM      3  C4  UNL     1      32.874  95.825  -7.229  0.00  0.00    +0.005 A 
ATOM      4  C5  UNL     1      33.559  96.886  -7.847  0.00  0.00    +0.018 A 
ATOM      5  C21 UNL     1      32.914  98.135  -7.941  0.00  0.00    +0.041 A 
ATOM      6  C22 UNL     1      31.600  98.312  -7.457  0.00  0.00    +0.172 A 
ENDROOT
BRANCH   4   7
ATOM      7  C6  UNL     1      34.940  96.670  -8.378  0.00  0.00    +0.079 C 
ATOM      8  N1  UNL     1      35.557  97.670  -8.936  0.00  0.00    -0.172 NA
ATOM      9  N2  UNL     1      36.858  97.598  -9.475  0.00  0.00    -0.222 N 
ATOM     10  C14 UNL     1      37.642  96.578  -9.207  0.00  0.00    +0.253 C 
ATOM     11  O2  UNL     1      38.962  96.579  -9.671  0.00  0.00    -0.271 OA
ATOM     12  C15 UNL     1      37.145  95.441  -8.323  0.00  0.00    +0.091 C 
ATOM     13  C16 UNL     1      37.771  94.076  -8.675  0.00  0.00    +0.035 C 
ATOM     14  C17 UNL     1      37.400  93.702 -10.078  0.00  0.00    -0.030 C 
ATOM     15  C18 UNL     1      36.154  93.919 -10.517  0.00  0.00    -0.030 C 
ATOM     16  C19 UNL     1      35.078  94.463  -9.606  0.00  0.00    +0.032 C 
ATOM     17  C20 UNL     1      35.597  95.306  -8.393  0.00  0.00    +0.056 C 
BRANCH   9  18
ATOM     18  C7  UNL     1      37.303  98.756 -10.278  0.00  0.00    +0.108 C 
ATOM     19  C8  UNL     1      36.102  99.444 -10.981  0.00  0.00    +0.024 C 
ATOM     20  C9  UNL     1      36.489 100.074 -12.328  0.00  0.00    +0.002 C 
ATOM     21  C10 UNL     1      37.221 101.413 -12.191  0.00  0.00    +0.000 C 
ATOM     22  C11 UNL     1      38.537 101.314 -11.408  0.00  0.00    +0.000 C 
ATOM     23  C12 UNL     1      38.302 101.153  -9.897  0.00  0.00    +0.002 C 
ATOM     24  C13 UNL     1      38.210  99.691  -9.431  0.00  0.00    +0.024 C 
ENDBRANCH   9  18
ENDBRANCH   4   7
BRANCH   1  26
ATOM     25  C1  UNL     1      29.081  96.760  -5.233  0.00  0.00    +0.253 C 
ATOM     26  O1  UNL     1      29.645  97.457  -6.340  0.00  0.00    -0.468 OA
ENDBRANCH   1  26
BRANCH   6  27
ATOM     27  O3  UNL     1      30.913  99.533  -7.570  0.00  0.00    -0.472 OA
BRANCH  27  28
ATOM     28  C23 UNL     1      30.990 100.434  -8.674  0.00  0.00    +0.206 C 
BRANCH  28  29
ATOM     29  C24 UNL     1      29.590 100.881  -9.104  0.00  0.00    +0.051 C 
BRANCH  29  30
ATOM     30  C25 UNL     1      29.658 102.033 -10.114  0.00  0.00    +0.051 C 
BRANCH  30  31
ATOM     31  C26 UNL     1      30.698 103.074  -9.702  0.00  0.00    +0.206 C 
BRANCH  31  32
ATOM     32  O4  UNL     1      31.660 103.219 -10.746  0.00  0.00    -0.475 OA
BRANCH  32  33
ATOM     33  C27 UNL     1      32.999 103.585 -10.554  0.00  0.00    +0.139 A 
ATOM     34  C28 UNL     1      33.833 102.697  -9.871  0.00  0.00    +0.037 A 
ATOM     35  C29 UNL     1      35.167 103.022  -9.621  0.00  0.00    +0.006 A 
ATOM     36  C30 UNL     1      35.703 104.245 -10.068  0.00  0.00    +0.040 A 
ATOM     37  C32 UNL     1      34.867 105.129 -10.779  0.00  0.00    +0.006 A 
ATOM     38  C33 UNL     1      33.526 104.806 -11.014  0.00  0.00    +0.037 A 
BRANCH  36  39
ATOM     39  C31 UNL     1      37.119 104.597  -9.790  0.00  0.00    +0.208 A 
ATOM     40  N3  UNL     1      37.647 104.805  -8.564  0.00  0.00    -0.106 NA
ATOM     41  N4  UNL     1      38.927 105.068  -8.764  0.00  0.00    -0.021 NA
ATOM     42  N5  UNL     1      39.190 105.031 -10.059  0.00  0.00    -0.021 NA
ATOM     43  N6  UNL     1      38.087 104.738 -10.723  0.00  0.00    -0.106 NA
ENDBRANCH  36  39
ENDBRANCH  32  33
ENDBRANCH  31  32
ENDBRANCH  30  31
ENDBRANCH  29  30
ENDBRANCH  28  29
ENDBRANCH  27  28
ENDBRANCH   6  27
TORSDOF 11
ENDMDL
MODEL 7
REMARK VINA RESULT:      -4.5      2.515      7.013
REMARK  Name = ./data/4u7t_site_bc02/pdb/l1c0.pdb
REMARK  11 active torsions:
REMARK  status: ('A' for Active; 'I' for Inactive)
REMARK    1  A    between atoms: O1_2  and  C2_3
REMARK    2  A    between atoms: C5_6  and  C6_7
REMARK    3  A    between atoms: N2_9  and  C7_10
REMARK    4  A    between atoms: C22_26  and  O3_27
REMARK    5  A    between atoms: O3_27  and  C23_28
REMARK    6  A    between atoms: C23_28  and  C24_29
REMARK    7  A    between atoms: C24_29  and  C25_30
REMARK    8  A    between atoms: C25_30  and  C26_31
REMARK    9  A    between atoms: C26_31  and  O4_32
REMARK   10  A    between atoms: O4_32  and  C27_33
REMARK   11  A    between atoms: C30_36  and  C31_37
REMARK                            x       y       z     vdW  Elec       q    Type
REMARK                         _______ _______ _______ _____ _____    ______ ____
ROOT
ATOM      1  C2  UNL     1      37.256  95.089  -8.828  0.00  0.00    +0.172 A 
ATOM      2  C3  UNL     1      36.124  94.733  -8.076  0.00  0.00    +0.040 A 
ATOM      3  C4  UNL     1      35.098  95.654  -7.865  0.00  0.00    +0.005 A 
ATOM      4  C5  UNL     1      35.167  96.951  -8.404  0.00  0.00    +0.018 A 
ATOM      5  C21 UNL     1      36.298  97.298  -9.168  0.00  0.00    +0.041 A 
ATOM      6  C22 UNL     1      37.352  96.380  -9.365  0.00  0.00    +0.172 A 
ENDROOT
BRANCH   4   7
ATOM      7  C6  UNL     1      34.053  97.917  -8.161  0.00  0.00    +0.079 C 
ATOM      8  N1  UNL     1      33.062  97.549  -7.402  0.00  0.00    -0.172 NA
ATOM      9  N2  UNL     1      31.953  98.364  -7.096  0.00  0.00    -0.222 N 
ATOM     10  C14 UNL     1      31.977  99.655  -7.342  0.00  0.00    +0.253 C 
ATOM     11  O2  UNL     1      30.905 100.457  -6.937  0.00  0.00    -0.271 OA
ATOM     12  C15 UNL     1      33.204 100.289  -7.987  0.00  0.00    +0.091 C 
ATOM     13  C16 UNL     1      32.868 101.515  -8.861  0.00  0.00    +0.035 C 
ATOM     14  C17 UNL     1      31.977 101.095  -9.991  0.00  0.00    -0.030 C 
ATOM     15  C18 UNL     1      32.217  99.947 -10.637  0.00  0.00    -0.030 C 
ATOM     16  C19 UNL     1      33.421  99.093 -10.310  0.00  0.00    +0.032 C 
ATOM     17  C20 UNL     1      33.980  99.260  -8.857  0.00  0.00    +0.056 C 
BRANCH   9  18
ATOM     18  C7  UNL     1      30.816  97.703  -6.421  0.00  0.00    +0.108 C 
ATOM     19  C8  UNL     1      29.479  98.016  -7.144  0.00  0.00    +0.024 C 
ATOM     20  C9  UNL     1      28.282  98.055  -6.180  0.00  0.00    +0.002 C 
ATOM     21  C10 UNL     1      27.779  96.667  -5.772  0.00  0.00    +0.000 C 
ATOM     22  C11 UNL     1      28.837  95.817  -5.056  0.00  0.00    +0.000 C 
ATOM     23  C12 UNL     1      29.900  95.276  -6.026  0.00  0.00    +0.002 C 
ATOM     24  C13 UNL     1      31.119  96.196  -6.193  0.00  0.00    +0.024 C 
ENDBRANCH   9  18
ENDBRANCH   4   7
BRANCH   1  26
ATOM     25  C1  UNL     1      39.112  93.610  -8.040  0.00  0.00    +0.253 C 
ATOM     26  O1  UNL     1      38.308  94.190  -9.062  0.00  0.00    -0.468 OA
ENDBRANCH   1  26
BRANCH   6  27
ATOM     27  O3  UNL     1      38.511  96.707 -10.089  0.00  0.00    -0.472 OA
BRANCH  27  28
ATOM     28  C23 UNL     1      39.201  97.956 -10.040  0.00  0.00    +0.206 C 
BRANCH  28  29
ATOM     29  C24 UNL     1      39.635  98.387 -11.444  0.00  0.00    +0.051 C 
BRANCH  29  30
ATOM     30  C25 UNL     1      39.987  99.879 -11.483  0.00  0.00    +0.051 C 
BRANCH  30  31
ATOM     31  C26 UNL     1      39.841 100.524 -10.105  0.00  0.00    +0.206 C 
BRANCH  31  32
ATOM     32  O4  UNL     1      39.511 101.903 -10.261  0.00  0.00    -0.475 OA
BRANCH  32  33
ATOM     33  C27 UNL     1      38.231 102.392 -10.554  0.00  0.00    +0.139 A 
ATOM     34  C28 UNL     1      37.320 102.522  -9.504  0.00  0.00    +0.037 A 
ATOM     35  C29 UNL     1      36.019 102.971  -9.741  0.00  0.00    +0.006 A 
ATOM     36  C30 UNL     1      35.608 103.320 -11.042  0.00  0.00    +0.040 A 
ATOM     37  C32 UNL     1      36.537 103.212 -12.096  0.00  0.00    +0.006 A 
ATOM     38  C33 UNL     1      37.834 102.746 -11.856  0.00  0.00    +0.037 A 
BRANCH  36  39
ATOM     39  C31 UNL     1      34.220 103.785 -11.297  0.00  0.00    +0.208 A 
ATOM     40  N3  UNL     1      33.539 104.668 -10.535  0.00  0.00    -0.106 NA
ATOM     41  N4  UNL     1      32.364 104.819 -11.123  0.00  0.00    -0.021 NA
ATOM     42  N5  UNL     1      32.310 104.060 -12.204  0.00  0.00    -0.021 NA
ATOM     43  N6  UNL     1      33.449 103.407 -12.342  0.00  0.00    -0.106 NA
ENDBRANCH  36  39
ENDBRANCH  32  33
ENDBRANCH  31  32
ENDBRANCH  30  31
ENDBRANCH  29  30
ENDBRANCH  28  29
ENDBRANCH  27  28
ENDBRANCH   6  27
TORSDOF 11
ENDMDL
